
---------- Begin Simulation Statistics ----------
sim_seconds                                  1.101446                       # Number of seconds simulated
sim_ticks                                1101445788000                       # Number of ticks simulated
final_tick                               1101445788000                       # Number of ticks from beginning of simulation (restored from checkpoints and never reset)
sim_freq                                 1000000000000                       # Frequency of simulated ticks
host_inst_rate                                 858123                       # Simulator instruction rate (inst/s)
host_op_rate                                  1391558                       # Simulator op (including micro ops) rate (op/s)
host_tick_rate                             1875016255                       # Simulator tick rate (ticks/s)
host_mem_usage                                 661192                       # Number of bytes of host memory used
host_seconds                                   587.43                       # Real time elapsed on the host
sim_insts                                   504088746                       # Number of instructions simulated
sim_ops                                     817446077                       # Number of ops (including micro ops) simulated
system.voltage_domain.voltage                       1                       # Voltage in Volts
system.clk_domain.clock                          1000                       # Clock period in ticks
system.mem_ctrls.pwrStateResidencyTicks::UNDEFINED 1101445788000                       # Cumulative time (in ticks) in various power states
system.mem_ctrls.bytes_read::cpu.inst           22592                       # Number of bytes read from this memory
system.mem_ctrls.bytes_read::cpu.data        17225728                       # Number of bytes read from this memory
system.mem_ctrls.bytes_read::total           17248320                       # Number of bytes read from this memory
system.mem_ctrls.bytes_inst_read::cpu.inst        22592                       # Number of instructions bytes read from this memory
system.mem_ctrls.bytes_inst_read::total         22592                       # Number of instructions bytes read from this memory
system.mem_ctrls.bytes_written::writebacks     15802944                       # Number of bytes written to this memory
system.mem_ctrls.bytes_written::total        15802944                       # Number of bytes written to this memory
system.mem_ctrls.num_reads::cpu.inst              353                       # Number of read requests responded to by this memory
system.mem_ctrls.num_reads::cpu.data           269152                       # Number of read requests responded to by this memory
system.mem_ctrls.num_reads::total              269505                       # Number of read requests responded to by this memory
system.mem_ctrls.num_writes::writebacks        246921                       # Number of write requests responded to by this memory
system.mem_ctrls.num_writes::total             246921                       # Number of write requests responded to by this memory
system.mem_ctrls.bw_read::cpu.inst              20511                       # Total read bandwidth from this memory (bytes/s)
system.mem_ctrls.bw_read::cpu.data           15639197                       # Total read bandwidth from this memory (bytes/s)
system.mem_ctrls.bw_read::total              15659709                       # Total read bandwidth from this memory (bytes/s)
system.mem_ctrls.bw_inst_read::cpu.inst         20511                       # Instruction read bandwidth from this memory (bytes/s)
system.mem_ctrls.bw_inst_read::total            20511                       # Instruction read bandwidth from this memory (bytes/s)
system.mem_ctrls.bw_write::writebacks        14347455                       # Write bandwidth from this memory (bytes/s)
system.mem_ctrls.bw_write::total             14347455                       # Write bandwidth from this memory (bytes/s)
system.mem_ctrls.bw_total::writebacks        14347455                       # Total bandwidth to/from this memory (bytes/s)
system.mem_ctrls.bw_total::cpu.inst             20511                       # Total bandwidth to/from this memory (bytes/s)
system.mem_ctrls.bw_total::cpu.data          15639197                       # Total bandwidth to/from this memory (bytes/s)
system.mem_ctrls.bw_total::total             30007164                       # Total bandwidth to/from this memory (bytes/s)
system.pwrStateResidencyTicks::UNDEFINED 1101445788000                       # Cumulative time (in ticks) in various power states
system.cpu_voltage_domain.voltage                   1                       # Voltage in Volts
system.cpu_clk_domain.clock                       500                       # Clock period in ticks
system.cpu.dtb.walker.pwrStateResidencyTicks::UNDEFINED 1101445788000                       # Cumulative time (in ticks) in various power states
system.cpu.dtb.rdAccesses                   238245977                       # TLB accesses on read requests
system.cpu.dtb.wrAccesses                    64374646                       # TLB accesses on write requests
system.cpu.dtb.rdMisses                          5921                       # TLB misses on read requests
system.cpu.dtb.wrMisses                           999                       # TLB misses on write requests
system.cpu.apic_clk_domain.clock                 8000                       # Clock period in ticks
system.cpu.interrupts.pwrStateResidencyTicks::UNDEFINED 1101445788000                       # Cumulative time (in ticks) in various power states
system.cpu.itb.walker.pwrStateResidencyTicks::UNDEFINED 1101445788000                       # Cumulative time (in ticks) in various power states
system.cpu.itb.rdAccesses                           0                       # TLB accesses on read requests
system.cpu.itb.wrAccesses                   677335172                       # TLB accesses on write requests
system.cpu.itb.rdMisses                             0                       # TLB misses on read requests
system.cpu.itb.wrMisses                            35                       # TLB misses on write requests
system.cpu.workload.numSyscalls                     9                       # Number of system calls
system.cpu.pwrStateResidencyTicks::ON    1101445788000                       # Cumulative time (in ticks) in various power states
system.cpu.numCycles                       2202891576                       # number of cpu cycles simulated
system.cpu.numWorkItemsStarted                      0                       # number of work items this cpu started
system.cpu.numWorkItemsCompleted                    0                       # number of work items this cpu completed
system.cpu.committedInsts                   504088746                       # Number of instructions committed
system.cpu.committedOps                     817446077                       # Number of ops (including micro ops) committed
system.cpu.num_int_alu_accesses             812629958                       # Number of integer alu accesses
system.cpu.num_fp_alu_accesses                   1943                       # Number of float alu accesses
system.cpu.num_vec_alu_accesses                     0                       # Number of vector alu accesses
system.cpu.num_func_calls                     9452832                       # number of times a function call or return occured
system.cpu.num_conditional_control_insts     46565888                       # number of instructions that are conditional controls
system.cpu.num_int_insts                    812629958                       # number of integer instructions
system.cpu.num_fp_insts                          1943                       # number of float instructions
system.cpu.num_vec_insts                            0                       # number of vector instructions
system.cpu.num_int_register_reads          1822855523                       # number of times the integer registers were read
system.cpu.num_int_register_writes          705741290                       # number of times the integer registers were written
system.cpu.num_fp_register_reads                 3767                       # number of times the floating registers were read
system.cpu.num_fp_register_writes                1480                       # number of times the floating registers were written
system.cpu.num_vec_register_reads                   0                       # number of times the vector registers were read
system.cpu.num_vec_register_writes                  0                       # number of times the vector registers were written
system.cpu.num_cc_register_reads            297557761                       # number of times the CC registers were read
system.cpu.num_cc_register_writes           279904568                       # number of times the CC registers were written
system.cpu.num_mem_refs                     302620620                       # number of memory refs
system.cpu.num_load_insts                   238245974                       # Number of load instructions
system.cpu.num_store_insts                   64374646                       # Number of store instructions
system.cpu.num_idle_cycles                          0                       # Number of idle cycles
system.cpu.num_busy_cycles                 2202891576                       # Number of busy cycles
system.cpu.not_idle_fraction                        1                       # Percentage of non-idle cycles
system.cpu.idle_fraction                            0                       # Percentage of idle cycles
system.cpu.Branches                          60772144                       # Number of branches fetched
system.cpu.op_class::No_OpClass               1362109      0.17%      0.17% # Class of executed instruction
system.cpu.op_class::IntAlu                 505014338     61.78%     61.95% # Class of executed instruction
system.cpu.op_class::IntMult                        4      0.00%     61.95% # Class of executed instruction
system.cpu.op_class::IntDiv                   8448046      1.03%     62.98% # Class of executed instruction
system.cpu.op_class::FloatAdd                      10      0.00%     62.98% # Class of executed instruction
system.cpu.op_class::FloatCmp                       0      0.00%     62.98% # Class of executed instruction
system.cpu.op_class::FloatCvt                       0      0.00%     62.98% # Class of executed instruction
system.cpu.op_class::FloatMult                      0      0.00%     62.98% # Class of executed instruction
system.cpu.op_class::FloatMultAcc                   0      0.00%     62.98% # Class of executed instruction
system.cpu.op_class::FloatDiv                       0      0.00%     62.98% # Class of executed instruction
system.cpu.op_class::FloatMisc                      0      0.00%     62.98% # Class of executed instruction
system.cpu.op_class::FloatSqrt                      0      0.00%     62.98% # Class of executed instruction
system.cpu.op_class::SimdAdd                      374      0.00%     62.98% # Class of executed instruction
system.cpu.op_class::SimdAddAcc                     0      0.00%     62.98% # Class of executed instruction
system.cpu.op_class::SimdAlu                       68      0.00%     62.98% # Class of executed instruction
system.cpu.op_class::SimdCmp                        0      0.00%     62.98% # Class of executed instruction
system.cpu.op_class::SimdCvt                      108      0.00%     62.98% # Class of executed instruction
system.cpu.op_class::SimdMisc                     214      0.00%     62.98% # Class of executed instruction
system.cpu.op_class::SimdMult                       0      0.00%     62.98% # Class of executed instruction
system.cpu.op_class::SimdMultAcc                    0      0.00%     62.98% # Class of executed instruction
system.cpu.op_class::SimdShift                    186      0.00%     62.98% # Class of executed instruction
system.cpu.op_class::SimdShiftAcc                   0      0.00%     62.98% # Class of executed instruction
system.cpu.op_class::SimdSqrt                       0      0.00%     62.98% # Class of executed instruction
system.cpu.op_class::SimdFloatAdd                   0      0.00%     62.98% # Class of executed instruction
system.cpu.op_class::SimdFloatAlu                   0      0.00%     62.98% # Class of executed instruction
system.cpu.op_class::SimdFloatCmp                   0      0.00%     62.98% # Class of executed instruction
system.cpu.op_class::SimdFloatCvt                   0      0.00%     62.98% # Class of executed instruction
system.cpu.op_class::SimdFloatDiv                   0      0.00%     62.98% # Class of executed instruction
system.cpu.op_class::SimdFloatMisc                  0      0.00%     62.98% # Class of executed instruction
system.cpu.op_class::SimdFloatMult                  0      0.00%     62.98% # Class of executed instruction
system.cpu.op_class::SimdFloatMultAcc               0      0.00%     62.98% # Class of executed instruction
system.cpu.op_class::SimdFloatSqrt                  0      0.00%     62.98% # Class of executed instruction
system.cpu.op_class::MemRead                238245918     29.15%     92.12% # Class of executed instruction
system.cpu.op_class::MemWrite                64374231      7.88%    100.00% # Class of executed instruction
system.cpu.op_class::FloatMemRead                  56      0.00%    100.00% # Class of executed instruction
system.cpu.op_class::FloatMemWrite                415      0.00%    100.00% # Class of executed instruction
system.cpu.op_class::IprAccess                      0      0.00%    100.00% # Class of executed instruction
system.cpu.op_class::InstPrefetch                   0      0.00%    100.00% # Class of executed instruction
system.cpu.op_class::total                  817446077                       # Class of executed instruction
system.cpu.dcache.tags.pwrStateResidencyTicks::UNDEFINED 1101445788000                       # Cumulative time (in ticks) in various power states
system.cpu.dcache.tags.tagsinuse           511.823468                       # Cycle average of tags in use
system.cpu.dcache.tags.total_refs           302620623                       # Total number of references to valid blocks.
system.cpu.dcache.tags.sampled_refs            682546                       # Sample count of references to valid blocks.
system.cpu.dcache.tags.avg_refs            443.370297                       # Average number of references to valid blocks.
system.cpu.dcache.tags.warmup_cycle            759000                       # Cycle when the warmup percentage was hit.
system.cpu.dcache.tags.occ_blocks::cpu.data   511.823468                       # Average occupied blocks per requestor
system.cpu.dcache.tags.occ_percent::cpu.data     0.999655                       # Average percentage of cache occupancy
system.cpu.dcache.tags.occ_percent::total     0.999655                       # Average percentage of cache occupancy
system.cpu.dcache.tags.occ_task_id_blocks::1024          512                       # Occupied blocks per task id
system.cpu.dcache.tags.age_task_id_blocks_1024::0           11                       # Occupied blocks per task id
system.cpu.dcache.tags.age_task_id_blocks_1024::1           17                       # Occupied blocks per task id
system.cpu.dcache.tags.age_task_id_blocks_1024::2           55                       # Occupied blocks per task id
system.cpu.dcache.tags.age_task_id_blocks_1024::3          421                       # Occupied blocks per task id
system.cpu.dcache.tags.age_task_id_blocks_1024::4            8                       # Occupied blocks per task id
system.cpu.dcache.tags.occ_task_id_percent::1024            1                       # Percentage of cache occupancy per task id
system.cpu.dcache.tags.tag_accesses         605923792                       # Number of tag accesses
system.cpu.dcache.tags.data_accesses        605923792                       # Number of data accesses
system.cpu.dcache.pwrStateResidencyTicks::UNDEFINED 1101445788000                       # Cumulative time (in ticks) in various power states
system.cpu.dcache.ReadReq_hits::cpu.data    237629929                       # number of ReadReq hits
system.cpu.dcache.ReadReq_hits::total       237629929                       # number of ReadReq hits
system.cpu.dcache.WriteReq_hits::cpu.data     64077886                       # number of WriteReq hits
system.cpu.dcache.WriteReq_hits::total       64077886                       # number of WriteReq hits
system.cpu.dcache.demand_hits::cpu.data     301707815                       # number of demand (read+write) hits
system.cpu.dcache.demand_hits::total        301707815                       # number of demand (read+write) hits
system.cpu.dcache.overall_hits::cpu.data    301707815                       # number of overall hits
system.cpu.dcache.overall_hits::total       301707815                       # number of overall hits
system.cpu.dcache.ReadReq_misses::cpu.data       616048                       # number of ReadReq misses
system.cpu.dcache.ReadReq_misses::total        616048                       # number of ReadReq misses
system.cpu.dcache.WriteReq_misses::cpu.data       296760                       # number of WriteReq misses
system.cpu.dcache.WriteReq_misses::total       296760                       # number of WriteReq misses
system.cpu.dcache.demand_misses::cpu.data       912808                       # number of demand (read+write) misses
system.cpu.dcache.demand_misses::total         912808                       # number of demand (read+write) misses
system.cpu.dcache.overall_misses::cpu.data       912808                       # number of overall misses
system.cpu.dcache.overall_misses::total        912808                       # number of overall misses
system.cpu.dcache.ReadReq_miss_latency::cpu.data  99773691500                       # number of ReadReq miss cycles
system.cpu.dcache.ReadReq_miss_latency::total  99773691500                       # number of ReadReq miss cycles
system.cpu.dcache.WriteReq_miss_latency::cpu.data  22563459000                       # number of WriteReq miss cycles
system.cpu.dcache.WriteReq_miss_latency::total  22563459000                       # number of WriteReq miss cycles
system.cpu.dcache.demand_miss_latency::cpu.data 122337150500                       # number of demand (read+write) miss cycles
system.cpu.dcache.demand_miss_latency::total 122337150500                       # number of demand (read+write) miss cycles
system.cpu.dcache.overall_miss_latency::cpu.data 122337150500                       # number of overall miss cycles
system.cpu.dcache.overall_miss_latency::total 122337150500                       # number of overall miss cycles
system.cpu.dcache.ReadReq_accesses::cpu.data    238245977                       # number of ReadReq accesses(hits+misses)
system.cpu.dcache.ReadReq_accesses::total    238245977                       # number of ReadReq accesses(hits+misses)
system.cpu.dcache.WriteReq_accesses::cpu.data     64374646                       # number of WriteReq accesses(hits+misses)
system.cpu.dcache.WriteReq_accesses::total     64374646                       # number of WriteReq accesses(hits+misses)
system.cpu.dcache.demand_accesses::cpu.data    302620623                       # number of demand (read+write) accesses
system.cpu.dcache.demand_accesses::total    302620623                       # number of demand (read+write) accesses
system.cpu.dcache.overall_accesses::cpu.data    302620623                       # number of overall (read+write) accesses
system.cpu.dcache.overall_accesses::total    302620623                       # number of overall (read+write) accesses
system.cpu.dcache.ReadReq_miss_rate::cpu.data     0.002586                       # miss rate for ReadReq accesses
system.cpu.dcache.ReadReq_miss_rate::total     0.002586                       # miss rate for ReadReq accesses
system.cpu.dcache.WriteReq_miss_rate::cpu.data     0.004610                       # miss rate for WriteReq accesses
system.cpu.dcache.WriteReq_miss_rate::total     0.004610                       # miss rate for WriteReq accesses
system.cpu.dcache.demand_miss_rate::cpu.data     0.003016                       # miss rate for demand accesses
system.cpu.dcache.demand_miss_rate::total     0.003016                       # miss rate for demand accesses
system.cpu.dcache.overall_miss_rate::cpu.data     0.003016                       # miss rate for overall accesses
system.cpu.dcache.overall_miss_rate::total     0.003016                       # miss rate for overall accesses
system.cpu.dcache.ReadReq_avg_miss_latency::cpu.data 161957.658332                       # average ReadReq miss latency
system.cpu.dcache.ReadReq_avg_miss_latency::total 161957.658332                       # average ReadReq miss latency
system.cpu.dcache.WriteReq_avg_miss_latency::cpu.data 76032.682976                       # average WriteReq miss latency
system.cpu.dcache.WriteReq_avg_miss_latency::total 76032.682976                       # average WriteReq miss latency
system.cpu.dcache.demand_avg_miss_latency::cpu.data 134022.872828                       # average overall miss latency
system.cpu.dcache.demand_avg_miss_latency::total 134022.872828                       # average overall miss latency
system.cpu.dcache.overall_avg_miss_latency::cpu.data 134022.872828                       # average overall miss latency
system.cpu.dcache.overall_avg_miss_latency::total 134022.872828                       # average overall miss latency
system.cpu.dcache.blocked_cycles::no_mshrs            0                       # number of cycles access was blocked
system.cpu.dcache.blocked_cycles::no_targets            0                       # number of cycles access was blocked
system.cpu.dcache.blocked::no_mshrs                 0                       # number of cycles access was blocked
system.cpu.dcache.blocked::no_targets               0                       # number of cycles access was blocked
system.cpu.dcache.avg_blocked_cycles::no_mshrs          nan                       # average number of cycles each access was blocked
system.cpu.dcache.avg_blocked_cycles::no_targets          nan                       # average number of cycles each access was blocked
system.cpu.dcache.writebacks::writebacks       657704                       # number of writebacks
system.cpu.dcache.writebacks::total            657704                       # number of writebacks
system.cpu.dcache.ReadReq_mshr_misses::cpu.data       616048                       # number of ReadReq MSHR misses
system.cpu.dcache.ReadReq_mshr_misses::total       616048                       # number of ReadReq MSHR misses
system.cpu.dcache.WriteReq_mshr_misses::cpu.data       296760                       # number of WriteReq MSHR misses
system.cpu.dcache.WriteReq_mshr_misses::total       296760                       # number of WriteReq MSHR misses
system.cpu.dcache.demand_mshr_misses::cpu.data       912808                       # number of demand (read+write) MSHR misses
system.cpu.dcache.demand_mshr_misses::total       912808                       # number of demand (read+write) MSHR misses
system.cpu.dcache.overall_mshr_misses::cpu.data       912808                       # number of overall MSHR misses
system.cpu.dcache.overall_mshr_misses::total       912808                       # number of overall MSHR misses
system.cpu.dcache.ReadReq_mshr_miss_latency::cpu.data  99157643500                       # number of ReadReq MSHR miss cycles
system.cpu.dcache.ReadReq_mshr_miss_latency::total  99157643500                       # number of ReadReq MSHR miss cycles
system.cpu.dcache.WriteReq_mshr_miss_latency::cpu.data  22266699000                       # number of WriteReq MSHR miss cycles
system.cpu.dcache.WriteReq_mshr_miss_latency::total  22266699000                       # number of WriteReq MSHR miss cycles
system.cpu.dcache.demand_mshr_miss_latency::cpu.data 121424342500                       # number of demand (read+write) MSHR miss cycles
system.cpu.dcache.demand_mshr_miss_latency::total 121424342500                       # number of demand (read+write) MSHR miss cycles
system.cpu.dcache.overall_mshr_miss_latency::cpu.data 121424342500                       # number of overall MSHR miss cycles
system.cpu.dcache.overall_mshr_miss_latency::total 121424342500                       # number of overall MSHR miss cycles
system.cpu.dcache.ReadReq_mshr_miss_rate::cpu.data     0.002586                       # mshr miss rate for ReadReq accesses
system.cpu.dcache.ReadReq_mshr_miss_rate::total     0.002586                       # mshr miss rate for ReadReq accesses
system.cpu.dcache.WriteReq_mshr_miss_rate::cpu.data     0.004610                       # mshr miss rate for WriteReq accesses
system.cpu.dcache.WriteReq_mshr_miss_rate::total     0.004610                       # mshr miss rate for WriteReq accesses
system.cpu.dcache.demand_mshr_miss_rate::cpu.data     0.003016                       # mshr miss rate for demand accesses
system.cpu.dcache.demand_mshr_miss_rate::total     0.003016                       # mshr miss rate for demand accesses
system.cpu.dcache.overall_mshr_miss_rate::cpu.data     0.003016                       # mshr miss rate for overall accesses
system.cpu.dcache.overall_mshr_miss_rate::total     0.003016                       # mshr miss rate for overall accesses
system.cpu.dcache.ReadReq_avg_mshr_miss_latency::cpu.data 160957.658332                       # average ReadReq mshr miss latency
system.cpu.dcache.ReadReq_avg_mshr_miss_latency::total 160957.658332                       # average ReadReq mshr miss latency
system.cpu.dcache.WriteReq_avg_mshr_miss_latency::cpu.data 75032.682976                       # average WriteReq mshr miss latency
system.cpu.dcache.WriteReq_avg_mshr_miss_latency::total 75032.682976                       # average WriteReq mshr miss latency
system.cpu.dcache.demand_avg_mshr_miss_latency::cpu.data 133022.872828                       # average overall mshr miss latency
system.cpu.dcache.demand_avg_mshr_miss_latency::total 133022.872828                       # average overall mshr miss latency
system.cpu.dcache.overall_avg_mshr_miss_latency::cpu.data 133022.872828                       # average overall mshr miss latency
system.cpu.dcache.overall_avg_mshr_miss_latency::total 133022.872828                       # average overall mshr miss latency
system.cpu.dcache.replacements                 682034                       # number of replacements
system.cpu.dtb_walker_cache.tags.pwrStateResidencyTicks::UNDEFINED 1101445788000                       # Cumulative time (in ticks) in various power states
system.cpu.dtb_walker_cache.tags.tagsinuse            0                       # Cycle average of tags in use
system.cpu.dtb_walker_cache.tags.total_refs            0                       # Total number of references to valid blocks.
system.cpu.dtb_walker_cache.tags.sampled_refs            0                       # Sample count of references to valid blocks.
system.cpu.dtb_walker_cache.tags.avg_refs          nan                       # Average number of references to valid blocks.
system.cpu.dtb_walker_cache.tags.warmup_cycle            0                       # Cycle when the warmup percentage was hit.
system.cpu.dtb_walker_cache.tags.tag_accesses            0                       # Number of tag accesses
system.cpu.dtb_walker_cache.tags.data_accesses            0                       # Number of data accesses
system.cpu.dtb_walker_cache.pwrStateResidencyTicks::UNDEFINED 1101445788000                       # Cumulative time (in ticks) in various power states
system.cpu.dtb_walker_cache.blocked_cycles::no_mshrs            0                       # number of cycles access was blocked
system.cpu.dtb_walker_cache.blocked_cycles::no_targets            0                       # number of cycles access was blocked
system.cpu.dtb_walker_cache.blocked::no_mshrs            0                       # number of cycles access was blocked
system.cpu.dtb_walker_cache.blocked::no_targets            0                       # number of cycles access was blocked
system.cpu.dtb_walker_cache.avg_blocked_cycles::no_mshrs          nan                       # average number of cycles each access was blocked
system.cpu.dtb_walker_cache.avg_blocked_cycles::no_targets          nan                       # average number of cycles each access was blocked
system.cpu.dtb_walker_cache.replacements            0                       # number of replacements
system.cpu.icache.tags.pwrStateResidencyTicks::UNDEFINED 1101445788000                       # Cumulative time (in ticks) in various power states
system.cpu.icache.tags.tagsinuse           278.474946                       # Cycle average of tags in use
system.cpu.icache.tags.total_refs           677335172                       # Total number of references to valid blocks.
system.cpu.icache.tags.sampled_refs               353                       # Sample count of references to valid blocks.
system.cpu.icache.tags.avg_refs          1918796.521246                       # Average number of references to valid blocks.
system.cpu.icache.tags.warmup_cycle            439000                       # Cycle when the warmup percentage was hit.
system.cpu.icache.tags.occ_blocks::cpu.inst   278.474946                       # Average occupied blocks per requestor
system.cpu.icache.tags.occ_percent::cpu.inst     0.543896                       # Average percentage of cache occupancy
system.cpu.icache.tags.occ_percent::total     0.543896                       # Average percentage of cache occupancy
system.cpu.icache.tags.occ_task_id_blocks::1024          305                       # Occupied blocks per task id
system.cpu.icache.tags.age_task_id_blocks_1024::0           18                       # Occupied blocks per task id
system.cpu.icache.tags.age_task_id_blocks_1024::1           21                       # Occupied blocks per task id
system.cpu.icache.tags.age_task_id_blocks_1024::4          266                       # Occupied blocks per task id
system.cpu.icache.tags.occ_task_id_percent::1024     0.595703                       # Percentage of cache occupancy per task id
system.cpu.icache.tags.tag_accesses        1354670697                       # Number of tag accesses
system.cpu.icache.tags.data_accesses       1354670697                       # Number of data accesses
system.cpu.icache.pwrStateResidencyTicks::UNDEFINED 1101445788000                       # Cumulative time (in ticks) in various power states
system.cpu.icache.ReadReq_hits::cpu.inst    677334819                       # number of ReadReq hits
system.cpu.icache.ReadReq_hits::total       677334819                       # number of ReadReq hits
system.cpu.icache.demand_hits::cpu.inst     677334819                       # number of demand (read+write) hits
system.cpu.icache.demand_hits::total        677334819                       # number of demand (read+write) hits
system.cpu.icache.overall_hits::cpu.inst    677334819                       # number of overall hits
system.cpu.icache.overall_hits::total       677334819                       # number of overall hits
system.cpu.icache.ReadReq_misses::cpu.inst          353                       # number of ReadReq misses
system.cpu.icache.ReadReq_misses::total           353                       # number of ReadReq misses
system.cpu.icache.demand_misses::cpu.inst          353                       # number of demand (read+write) misses
system.cpu.icache.demand_misses::total            353                       # number of demand (read+write) misses
system.cpu.icache.overall_misses::cpu.inst          353                       # number of overall misses
system.cpu.icache.overall_misses::total           353                       # number of overall misses
system.cpu.icache.ReadReq_miss_latency::cpu.inst     66007000                       # number of ReadReq miss cycles
system.cpu.icache.ReadReq_miss_latency::total     66007000                       # number of ReadReq miss cycles
system.cpu.icache.demand_miss_latency::cpu.inst     66007000                       # number of demand (read+write) miss cycles
system.cpu.icache.demand_miss_latency::total     66007000                       # number of demand (read+write) miss cycles
system.cpu.icache.overall_miss_latency::cpu.inst     66007000                       # number of overall miss cycles
system.cpu.icache.overall_miss_latency::total     66007000                       # number of overall miss cycles
system.cpu.icache.ReadReq_accesses::cpu.inst    677335172                       # number of ReadReq accesses(hits+misses)
system.cpu.icache.ReadReq_accesses::total    677335172                       # number of ReadReq accesses(hits+misses)
system.cpu.icache.demand_accesses::cpu.inst    677335172                       # number of demand (read+write) accesses
system.cpu.icache.demand_accesses::total    677335172                       # number of demand (read+write) accesses
system.cpu.icache.overall_accesses::cpu.inst    677335172                       # number of overall (read+write) accesses
system.cpu.icache.overall_accesses::total    677335172                       # number of overall (read+write) accesses
system.cpu.icache.ReadReq_miss_rate::cpu.inst     0.000001                       # miss rate for ReadReq accesses
system.cpu.icache.ReadReq_miss_rate::total     0.000001                       # miss rate for ReadReq accesses
system.cpu.icache.demand_miss_rate::cpu.inst     0.000001                       # miss rate for demand accesses
system.cpu.icache.demand_miss_rate::total     0.000001                       # miss rate for demand accesses
system.cpu.icache.overall_miss_rate::cpu.inst     0.000001                       # miss rate for overall accesses
system.cpu.icache.overall_miss_rate::total     0.000001                       # miss rate for overall accesses
system.cpu.icache.ReadReq_avg_miss_latency::cpu.inst 186988.668555                       # average ReadReq miss latency
system.cpu.icache.ReadReq_avg_miss_latency::total 186988.668555                       # average ReadReq miss latency
system.cpu.icache.demand_avg_miss_latency::cpu.inst 186988.668555                       # average overall miss latency
system.cpu.icache.demand_avg_miss_latency::total 186988.668555                       # average overall miss latency
system.cpu.icache.overall_avg_miss_latency::cpu.inst 186988.668555                       # average overall miss latency
system.cpu.icache.overall_avg_miss_latency::total 186988.668555                       # average overall miss latency
system.cpu.icache.blocked_cycles::no_mshrs            0                       # number of cycles access was blocked
system.cpu.icache.blocked_cycles::no_targets            0                       # number of cycles access was blocked
system.cpu.icache.blocked::no_mshrs                 0                       # number of cycles access was blocked
system.cpu.icache.blocked::no_targets               0                       # number of cycles access was blocked
system.cpu.icache.avg_blocked_cycles::no_mshrs          nan                       # average number of cycles each access was blocked
system.cpu.icache.avg_blocked_cycles::no_targets          nan                       # average number of cycles each access was blocked
system.cpu.icache.writebacks::writebacks           48                       # number of writebacks
system.cpu.icache.writebacks::total                48                       # number of writebacks
system.cpu.icache.ReadReq_mshr_misses::cpu.inst          353                       # number of ReadReq MSHR misses
system.cpu.icache.ReadReq_mshr_misses::total          353                       # number of ReadReq MSHR misses
system.cpu.icache.demand_mshr_misses::cpu.inst          353                       # number of demand (read+write) MSHR misses
system.cpu.icache.demand_mshr_misses::total          353                       # number of demand (read+write) MSHR misses
system.cpu.icache.overall_mshr_misses::cpu.inst          353                       # number of overall MSHR misses
system.cpu.icache.overall_mshr_misses::total          353                       # number of overall MSHR misses
system.cpu.icache.ReadReq_mshr_miss_latency::cpu.inst     65654000                       # number of ReadReq MSHR miss cycles
system.cpu.icache.ReadReq_mshr_miss_latency::total     65654000                       # number of ReadReq MSHR miss cycles
system.cpu.icache.demand_mshr_miss_latency::cpu.inst     65654000                       # number of demand (read+write) MSHR miss cycles
system.cpu.icache.demand_mshr_miss_latency::total     65654000                       # number of demand (read+write) MSHR miss cycles
system.cpu.icache.overall_mshr_miss_latency::cpu.inst     65654000                       # number of overall MSHR miss cycles
system.cpu.icache.overall_mshr_miss_latency::total     65654000                       # number of overall MSHR miss cycles
system.cpu.icache.ReadReq_mshr_miss_rate::cpu.inst     0.000001                       # mshr miss rate for ReadReq accesses
system.cpu.icache.ReadReq_mshr_miss_rate::total     0.000001                       # mshr miss rate for ReadReq accesses
system.cpu.icache.demand_mshr_miss_rate::cpu.inst     0.000001                       # mshr miss rate for demand accesses
system.cpu.icache.demand_mshr_miss_rate::total     0.000001                       # mshr miss rate for demand accesses
system.cpu.icache.overall_mshr_miss_rate::cpu.inst     0.000001                       # mshr miss rate for overall accesses
system.cpu.icache.overall_mshr_miss_rate::total     0.000001                       # mshr miss rate for overall accesses
system.cpu.icache.ReadReq_avg_mshr_miss_latency::cpu.inst 185988.668555                       # average ReadReq mshr miss latency
system.cpu.icache.ReadReq_avg_mshr_miss_latency::total 185988.668555                       # average ReadReq mshr miss latency
system.cpu.icache.demand_avg_mshr_miss_latency::cpu.inst 185988.668555                       # average overall mshr miss latency
system.cpu.icache.demand_avg_mshr_miss_latency::total 185988.668555                       # average overall mshr miss latency
system.cpu.icache.overall_avg_mshr_miss_latency::cpu.inst 185988.668555                       # average overall mshr miss latency
system.cpu.icache.overall_avg_mshr_miss_latency::total 185988.668555                       # average overall mshr miss latency
system.cpu.icache.replacements                     48                       # number of replacements
system.cpu.itb_walker_cache.tags.pwrStateResidencyTicks::UNDEFINED 1101445788000                       # Cumulative time (in ticks) in various power states
system.cpu.itb_walker_cache.tags.tagsinuse            0                       # Cycle average of tags in use
system.cpu.itb_walker_cache.tags.total_refs            0                       # Total number of references to valid blocks.
system.cpu.itb_walker_cache.tags.sampled_refs            0                       # Sample count of references to valid blocks.
system.cpu.itb_walker_cache.tags.avg_refs          nan                       # Average number of references to valid blocks.
system.cpu.itb_walker_cache.tags.warmup_cycle            0                       # Cycle when the warmup percentage was hit.
system.cpu.itb_walker_cache.tags.tag_accesses            0                       # Number of tag accesses
system.cpu.itb_walker_cache.tags.data_accesses            0                       # Number of data accesses
system.cpu.itb_walker_cache.pwrStateResidencyTicks::UNDEFINED 1101445788000                       # Cumulative time (in ticks) in various power states
system.cpu.itb_walker_cache.blocked_cycles::no_mshrs            0                       # number of cycles access was blocked
system.cpu.itb_walker_cache.blocked_cycles::no_targets            0                       # number of cycles access was blocked
system.cpu.itb_walker_cache.blocked::no_mshrs            0                       # number of cycles access was blocked
system.cpu.itb_walker_cache.blocked::no_targets            0                       # number of cycles access was blocked
system.cpu.itb_walker_cache.avg_blocked_cycles::no_mshrs          nan                       # average number of cycles each access was blocked
system.cpu.itb_walker_cache.avg_blocked_cycles::no_targets          nan                       # average number of cycles each access was blocked
system.cpu.itb_walker_cache.replacements            0                       # number of replacements
system.l2.tags.pwrStateResidencyTicks::UNDEFINED 1101445788000                       # Cumulative time (in ticks) in various power states
system.l2.tags.tagsinuse                  2045.592775                       # Cycle average of tags in use
system.l2.tags.total_refs                     1595243                       # Total number of references to valid blocks.
system.l2.tags.sampled_refs                    518829                       # Sample count of references to valid blocks.
system.l2.tags.avg_refs                      3.074699                       # Average number of references to valid blocks.
system.l2.tags.warmup_cycle                    428500                       # Cycle when the warmup percentage was hit.
system.l2.tags.occ_blocks::writebacks        0.935966                       # Average occupied blocks per requestor
system.l2.tags.occ_blocks::cpu.inst          0.921735                       # Average occupied blocks per requestor
system.l2.tags.occ_blocks::cpu.data       2043.735074                       # Average occupied blocks per requestor
system.l2.tags.occ_percent::writebacks       0.000457                       # Average percentage of cache occupancy
system.l2.tags.occ_percent::cpu.inst         0.000450                       # Average percentage of cache occupancy
system.l2.tags.occ_percent::cpu.data         0.997918                       # Average percentage of cache occupancy
system.l2.tags.occ_percent::total            0.998825                       # Average percentage of cache occupancy
system.l2.tags.occ_task_id_blocks::1024          2048                       # Occupied blocks per task id
system.l2.tags.age_task_id_blocks_1024::0           40                       # Occupied blocks per task id
system.l2.tags.age_task_id_blocks_1024::1           40                       # Occupied blocks per task id
system.l2.tags.age_task_id_blocks_1024::3          450                       # Occupied blocks per task id
system.l2.tags.age_task_id_blocks_1024::4         1518                       # Occupied blocks per task id
system.l2.tags.occ_task_id_percent::1024            1                       # Percentage of cache occupancy per task id
system.l2.tags.tag_accesses                  13280773                       # Number of tag accesses
system.l2.tags.data_accesses                 13280773                       # Number of data accesses
system.l2.pwrStateResidencyTicks::UNDEFINED 1101445788000                       # Cumulative time (in ticks) in various power states
system.l2.WritebackDirty_hits::writebacks       657704                       # number of WritebackDirty hits
system.l2.WritebackDirty_hits::total           657704                       # number of WritebackDirty hits
system.l2.WritebackClean_hits::writebacks           48                       # number of WritebackClean hits
system.l2.WritebackClean_hits::total               48                       # number of WritebackClean hits
system.l2.UpgradeReq_hits::cpu.data            230262                       # number of UpgradeReq hits
system.l2.UpgradeReq_hits::total               230262                       # number of UpgradeReq hits
system.l2.ReadExReq_hits::cpu.data               3064                       # number of ReadExReq hits
system.l2.ReadExReq_hits::total                  3064                       # number of ReadExReq hits
system.l2.ReadSharedReq_hits::cpu.data         161110                       # number of ReadSharedReq hits
system.l2.ReadSharedReq_hits::total            161110                       # number of ReadSharedReq hits
system.l2.demand_hits::cpu.data                164174                       # number of demand (read+write) hits
system.l2.demand_hits::total                   164174                       # number of demand (read+write) hits
system.l2.overall_hits::cpu.data               164174                       # number of overall hits
system.l2.overall_hits::total                  164174                       # number of overall hits
system.l2.ReadExReq_misses::cpu.data            63434                       # number of ReadExReq misses
system.l2.ReadExReq_misses::total               63434                       # number of ReadExReq misses
system.l2.ReadCleanReq_misses::cpu.inst           353                       # number of ReadCleanReq misses
system.l2.ReadCleanReq_misses::total              353                       # number of ReadCleanReq misses
system.l2.ReadSharedReq_misses::cpu.data       454938                       # number of ReadSharedReq misses
system.l2.ReadSharedReq_misses::total          454938                       # number of ReadSharedReq misses
system.l2.demand_misses::cpu.inst                 353                       # number of demand (read+write) misses
system.l2.demand_misses::cpu.data              518372                       # number of demand (read+write) misses
system.l2.demand_misses::total                 518725                       # number of demand (read+write) misses
system.l2.overall_misses::cpu.inst                353                       # number of overall misses
system.l2.overall_misses::cpu.data             518372                       # number of overall misses
system.l2.overall_misses::total                518725                       # number of overall misses
system.l2.ReadExReq_miss_latency::cpu.data  19371636000                       # number of ReadExReq miss cycles
system.l2.ReadExReq_miss_latency::total   19371636000                       # number of ReadExReq miss cycles
system.l2.ReadCleanReq_miss_latency::cpu.inst     65124000                       # number of ReadCleanReq miss cycles
system.l2.ReadCleanReq_miss_latency::total     65124000                       # number of ReadCleanReq miss cycles
system.l2.ReadSharedReq_miss_latency::cpu.data  96541916500                       # number of ReadSharedReq miss cycles
system.l2.ReadSharedReq_miss_latency::total  96541916500                       # number of ReadSharedReq miss cycles
system.l2.demand_miss_latency::cpu.inst      65124000                       # number of demand (read+write) miss cycles
system.l2.demand_miss_latency::cpu.data  115913552500                       # number of demand (read+write) miss cycles
system.l2.demand_miss_latency::total     115978676500                       # number of demand (read+write) miss cycles
system.l2.overall_miss_latency::cpu.inst     65124000                       # number of overall miss cycles
system.l2.overall_miss_latency::cpu.data 115913552500                       # number of overall miss cycles
system.l2.overall_miss_latency::total    115978676500                       # number of overall miss cycles
system.l2.WritebackDirty_accesses::writebacks       657704                       # number of WritebackDirty accesses(hits+misses)
system.l2.WritebackDirty_accesses::total       657704                       # number of WritebackDirty accesses(hits+misses)
system.l2.WritebackClean_accesses::writebacks           48                       # number of WritebackClean accesses(hits+misses)
system.l2.WritebackClean_accesses::total           48                       # number of WritebackClean accesses(hits+misses)
system.l2.UpgradeReq_accesses::cpu.data        230262                       # number of UpgradeReq accesses(hits+misses)
system.l2.UpgradeReq_accesses::total           230262                       # number of UpgradeReq accesses(hits+misses)
system.l2.ReadExReq_accesses::cpu.data          66498                       # number of ReadExReq accesses(hits+misses)
system.l2.ReadExReq_accesses::total             66498                       # number of ReadExReq accesses(hits+misses)
system.l2.ReadCleanReq_accesses::cpu.inst          353                       # number of ReadCleanReq accesses(hits+misses)
system.l2.ReadCleanReq_accesses::total            353                       # number of ReadCleanReq accesses(hits+misses)
system.l2.ReadSharedReq_accesses::cpu.data       616048                       # number of ReadSharedReq accesses(hits+misses)
system.l2.ReadSharedReq_accesses::total        616048                       # number of ReadSharedReq accesses(hits+misses)
system.l2.demand_accesses::cpu.inst               353                       # number of demand (read+write) accesses
system.l2.demand_accesses::cpu.data            682546                       # number of demand (read+write) accesses
system.l2.demand_accesses::total               682899                       # number of demand (read+write) accesses
system.l2.overall_accesses::cpu.inst              353                       # number of overall (read+write) accesses
system.l2.overall_accesses::cpu.data           682546                       # number of overall (read+write) accesses
system.l2.overall_accesses::total              682899                       # number of overall (read+write) accesses
system.l2.ReadExReq_miss_rate::cpu.data      0.953923                       # miss rate for ReadExReq accesses
system.l2.ReadExReq_miss_rate::total         0.953923                       # miss rate for ReadExReq accesses
system.l2.ReadCleanReq_miss_rate::cpu.inst            1                       # miss rate for ReadCleanReq accesses
system.l2.ReadCleanReq_miss_rate::total             1                       # miss rate for ReadCleanReq accesses
system.l2.ReadSharedReq_miss_rate::cpu.data     0.738478                       # miss rate for ReadSharedReq accesses
system.l2.ReadSharedReq_miss_rate::total     0.738478                       # miss rate for ReadSharedReq accesses
system.l2.demand_miss_rate::cpu.inst                1                       # miss rate for demand accesses
system.l2.demand_miss_rate::cpu.data         0.759468                       # miss rate for demand accesses
system.l2.demand_miss_rate::total            0.759593                       # miss rate for demand accesses
system.l2.overall_miss_rate::cpu.inst               1                       # miss rate for overall accesses
system.l2.overall_miss_rate::cpu.data        0.759468                       # miss rate for overall accesses
system.l2.overall_miss_rate::total           0.759593                       # miss rate for overall accesses
system.l2.ReadExReq_avg_miss_latency::cpu.data 305382.539332                       # average ReadExReq miss latency
system.l2.ReadExReq_avg_miss_latency::total 305382.539332                       # average ReadExReq miss latency
system.l2.ReadCleanReq_avg_miss_latency::cpu.inst 184487.252125                       # average ReadCleanReq miss latency
system.l2.ReadCleanReq_avg_miss_latency::total 184487.252125                       # average ReadCleanReq miss latency
system.l2.ReadSharedReq_avg_miss_latency::cpu.data 212208.952648                       # average ReadSharedReq miss latency
system.l2.ReadSharedReq_avg_miss_latency::total 212208.952648                       # average ReadSharedReq miss latency
system.l2.demand_avg_miss_latency::cpu.inst 184487.252125                       # average overall miss latency
system.l2.demand_avg_miss_latency::cpu.data 223610.751545                       # average overall miss latency
system.l2.demand_avg_miss_latency::total 223584.127428                       # average overall miss latency
system.l2.overall_avg_miss_latency::cpu.inst 184487.252125                       # average overall miss latency
system.l2.overall_avg_miss_latency::cpu.data 223610.751545                       # average overall miss latency
system.l2.overall_avg_miss_latency::total 223584.127428                       # average overall miss latency
system.l2.blocked_cycles::no_mshrs                  0                       # number of cycles access was blocked
system.l2.blocked_cycles::no_targets                0                       # number of cycles access was blocked
system.l2.blocked::no_mshrs                         0                       # number of cycles access was blocked
system.l2.blocked::no_targets                       0                       # number of cycles access was blocked
system.l2.avg_blocked_cycles::no_mshrs            nan                       # average number of cycles each access was blocked
system.l2.avg_blocked_cycles::no_targets          nan                       # average number of cycles each access was blocked
system.l2.writebacks::writebacks               508539                       # number of writebacks
system.l2.writebacks::total                    508539                       # number of writebacks
system.l2.ReadExReq_mshr_misses::cpu.data        63434                       # number of ReadExReq MSHR misses
system.l2.ReadExReq_mshr_misses::total          63434                       # number of ReadExReq MSHR misses
system.l2.ReadCleanReq_mshr_misses::cpu.inst          353                       # number of ReadCleanReq MSHR misses
system.l2.ReadCleanReq_mshr_misses::total          353                       # number of ReadCleanReq MSHR misses
system.l2.ReadSharedReq_mshr_misses::cpu.data       454938                       # number of ReadSharedReq MSHR misses
system.l2.ReadSharedReq_mshr_misses::total       454938                       # number of ReadSharedReq MSHR misses
system.l2.demand_mshr_misses::cpu.inst            353                       # number of demand (read+write) MSHR misses
system.l2.demand_mshr_misses::cpu.data         518372                       # number of demand (read+write) MSHR misses
system.l2.demand_mshr_misses::total            518725                       # number of demand (read+write) MSHR misses
system.l2.overall_mshr_misses::cpu.inst           353                       # number of overall MSHR misses
system.l2.overall_mshr_misses::cpu.data        518372                       # number of overall MSHR misses
system.l2.overall_mshr_misses::total           518725                       # number of overall MSHR misses
system.l2.ReadExReq_mshr_miss_latency::cpu.data  18737296000                       # number of ReadExReq MSHR miss cycles
system.l2.ReadExReq_mshr_miss_latency::total  18737296000                       # number of ReadExReq MSHR miss cycles
system.l2.ReadCleanReq_mshr_miss_latency::cpu.inst     61594000                       # number of ReadCleanReq MSHR miss cycles
system.l2.ReadCleanReq_mshr_miss_latency::total     61594000                       # number of ReadCleanReq MSHR miss cycles
system.l2.ReadSharedReq_mshr_miss_latency::cpu.data  91992536500                       # number of ReadSharedReq MSHR miss cycles
system.l2.ReadSharedReq_mshr_miss_latency::total  91992536500                       # number of ReadSharedReq MSHR miss cycles
system.l2.demand_mshr_miss_latency::cpu.inst     61594000                       # number of demand (read+write) MSHR miss cycles
system.l2.demand_mshr_miss_latency::cpu.data 110729832500                       # number of demand (read+write) MSHR miss cycles
system.l2.demand_mshr_miss_latency::total 110791426500                       # number of demand (read+write) MSHR miss cycles
system.l2.overall_mshr_miss_latency::cpu.inst     61594000                       # number of overall MSHR miss cycles
system.l2.overall_mshr_miss_latency::cpu.data 110729832500                       # number of overall MSHR miss cycles
system.l2.overall_mshr_miss_latency::total 110791426500                       # number of overall MSHR miss cycles
system.l2.ReadExReq_mshr_miss_rate::cpu.data     0.953923                       # mshr miss rate for ReadExReq accesses
system.l2.ReadExReq_mshr_miss_rate::total     0.953923                       # mshr miss rate for ReadExReq accesses
system.l2.ReadCleanReq_mshr_miss_rate::cpu.inst            1                       # mshr miss rate for ReadCleanReq accesses
system.l2.ReadCleanReq_mshr_miss_rate::total            1                       # mshr miss rate for ReadCleanReq accesses
system.l2.ReadSharedReq_mshr_miss_rate::cpu.data     0.738478                       # mshr miss rate for ReadSharedReq accesses
system.l2.ReadSharedReq_mshr_miss_rate::total     0.738478                       # mshr miss rate for ReadSharedReq accesses
system.l2.demand_mshr_miss_rate::cpu.inst            1                       # mshr miss rate for demand accesses
system.l2.demand_mshr_miss_rate::cpu.data     0.759468                       # mshr miss rate for demand accesses
system.l2.demand_mshr_miss_rate::total       0.759593                       # mshr miss rate for demand accesses
system.l2.overall_mshr_miss_rate::cpu.inst            1                       # mshr miss rate for overall accesses
system.l2.overall_mshr_miss_rate::cpu.data     0.759468                       # mshr miss rate for overall accesses
system.l2.overall_mshr_miss_rate::total      0.759593                       # mshr miss rate for overall accesses
system.l2.ReadExReq_avg_mshr_miss_latency::cpu.data 295382.539332                       # average ReadExReq mshr miss latency
system.l2.ReadExReq_avg_mshr_miss_latency::total 295382.539332                       # average ReadExReq mshr miss latency
system.l2.ReadCleanReq_avg_mshr_miss_latency::cpu.inst 174487.252125                       # average ReadCleanReq mshr miss latency
system.l2.ReadCleanReq_avg_mshr_miss_latency::total 174487.252125                       # average ReadCleanReq mshr miss latency
system.l2.ReadSharedReq_avg_mshr_miss_latency::cpu.data 202208.952648                       # average ReadSharedReq mshr miss latency
system.l2.ReadSharedReq_avg_mshr_miss_latency::total 202208.952648                       # average ReadSharedReq mshr miss latency
system.l2.demand_avg_mshr_miss_latency::cpu.inst 174487.252125                       # average overall mshr miss latency
system.l2.demand_avg_mshr_miss_latency::cpu.data 213610.751545                       # average overall mshr miss latency
system.l2.demand_avg_mshr_miss_latency::total 213584.127428                       # average overall mshr miss latency
system.l2.overall_avg_mshr_miss_latency::cpu.inst 174487.252125                       # average overall mshr miss latency
system.l2.overall_avg_mshr_miss_latency::cpu.data 213610.751545                       # average overall mshr miss latency
system.l2.overall_avg_mshr_miss_latency::total 213584.127428                       # average overall mshr miss latency
system.l2.replacements                         516781                       # number of replacements
system.l3.tags.pwrStateResidencyTicks::UNDEFINED 1101445788000                       # Cumulative time (in ticks) in various power states
system.l3.tags.tagsinuse                 16148.851597                       # Cycle average of tags in use
system.l3.tags.total_refs                     1034960                       # Total number of references to valid blocks.
system.l3.tags.sampled_refs                    285112                       # Sample count of references to valid blocks.
system.l3.tags.avg_refs                      3.630012                       # Average number of references to valid blocks.
system.l3.tags.warmup_cycle                    418000                       # Cycle when the warmup percentage was hit.
system.l3.tags.occ_blocks::writebacks      496.283173                       # Average occupied blocks per requestor
system.l3.tags.occ_blocks::cpu.inst          4.437914                       # Average occupied blocks per requestor
system.l3.tags.occ_blocks::cpu.data      15648.130510                       # Average occupied blocks per requestor
system.l3.tags.occ_percent::writebacks       0.030291                       # Average percentage of cache occupancy
system.l3.tags.occ_percent::cpu.inst         0.000271                       # Average percentage of cache occupancy
system.l3.tags.occ_percent::cpu.data         0.955086                       # Average percentage of cache occupancy
system.l3.tags.occ_percent::total            0.985648                       # Average percentage of cache occupancy
system.l3.tags.occ_task_id_blocks::1024         16384                       # Occupied blocks per task id
system.l3.tags.age_task_id_blocks_1024::0           29                       # Occupied blocks per task id
system.l3.tags.age_task_id_blocks_1024::1           36                       # Occupied blocks per task id
system.l3.tags.age_task_id_blocks_1024::4        16319                       # Occupied blocks per task id
system.l3.tags.occ_task_id_percent::1024            1                       # Percentage of cache occupancy per task id
system.l3.tags.tag_accesses                   1320247                       # Number of tag accesses
system.l3.tags.data_accesses                  1320247                       # Number of data accesses
system.l3.pwrStateResidencyTicks::UNDEFINED 1101445788000                       # Cumulative time (in ticks) in various power states
system.l3.WritebackDirty_hits::writebacks       508538                       # number of WritebackDirty hits
system.l3.WritebackDirty_hits::total           508538                       # number of WritebackDirty hits
system.l3.ReadExReq_hits::cpu.data                632                       # number of ReadExReq hits
system.l3.ReadExReq_hits::total                   632                       # number of ReadExReq hits
system.l3.ReadSharedReq_hits::cpu.data         248588                       # number of ReadSharedReq hits
system.l3.ReadSharedReq_hits::total            248588                       # number of ReadSharedReq hits
system.l3.demand_hits::cpu.data                249220                       # number of demand (read+write) hits
system.l3.demand_hits::total                   249220                       # number of demand (read+write) hits
system.l3.overall_hits::cpu.data               249220                       # number of overall hits
system.l3.overall_hits::total                  249220                       # number of overall hits
system.l3.ReadExReq_misses::cpu.data            62802                       # number of ReadExReq misses
system.l3.ReadExReq_misses::total               62802                       # number of ReadExReq misses
system.l3.ReadSharedReq_misses::cpu.inst          353                       # number of ReadSharedReq misses
system.l3.ReadSharedReq_misses::cpu.data       206350                       # number of ReadSharedReq misses
system.l3.ReadSharedReq_misses::total          206703                       # number of ReadSharedReq misses
system.l3.demand_misses::cpu.inst                 353                       # number of demand (read+write) misses
system.l3.demand_misses::cpu.data              269152                       # number of demand (read+write) misses
system.l3.demand_misses::total                 269505                       # number of demand (read+write) misses
system.l3.overall_misses::cpu.inst                353                       # number of overall misses
system.l3.overall_misses::cpu.data             269152                       # number of overall misses
system.l3.overall_misses::total                269505                       # number of overall misses
system.l3.ReadExReq_miss_latency::cpu.data  18032886000                       # number of ReadExReq miss cycles
system.l3.ReadExReq_miss_latency::total   18032886000                       # number of ReadExReq miss cycles
system.l3.ReadSharedReq_miss_latency::cpu.inst     57711000                       # number of ReadSharedReq miss cycles
system.l3.ReadSharedReq_miss_latency::cpu.data  84375687499                       # number of ReadSharedReq miss cycles
system.l3.ReadSharedReq_miss_latency::total  84433398499                       # number of ReadSharedReq miss cycles
system.l3.demand_miss_latency::cpu.inst      57711000                       # number of demand (read+write) miss cycles
system.l3.demand_miss_latency::cpu.data  102408573499                       # number of demand (read+write) miss cycles
system.l3.demand_miss_latency::total     102466284499                       # number of demand (read+write) miss cycles
system.l3.overall_miss_latency::cpu.inst     57711000                       # number of overall miss cycles
system.l3.overall_miss_latency::cpu.data 102408573499                       # number of overall miss cycles
system.l3.overall_miss_latency::total    102466284499                       # number of overall miss cycles
system.l3.WritebackDirty_accesses::writebacks       508538                       # number of WritebackDirty accesses(hits+misses)
system.l3.WritebackDirty_accesses::total       508538                       # number of WritebackDirty accesses(hits+misses)
system.l3.ReadExReq_accesses::cpu.data          63434                       # number of ReadExReq accesses(hits+misses)
system.l3.ReadExReq_accesses::total             63434                       # number of ReadExReq accesses(hits+misses)
system.l3.ReadSharedReq_accesses::cpu.inst          353                       # number of ReadSharedReq accesses(hits+misses)
system.l3.ReadSharedReq_accesses::cpu.data       454938                       # number of ReadSharedReq accesses(hits+misses)
system.l3.ReadSharedReq_accesses::total        455291                       # number of ReadSharedReq accesses(hits+misses)
system.l3.demand_accesses::cpu.inst               353                       # number of demand (read+write) accesses
system.l3.demand_accesses::cpu.data            518372                       # number of demand (read+write) accesses
system.l3.demand_accesses::total               518725                       # number of demand (read+write) accesses
system.l3.overall_accesses::cpu.inst              353                       # number of overall (read+write) accesses
system.l3.overall_accesses::cpu.data           518372                       # number of overall (read+write) accesses
system.l3.overall_accesses::total              518725                       # number of overall (read+write) accesses
system.l3.ReadExReq_miss_rate::cpu.data      0.990037                       # miss rate for ReadExReq accesses
system.l3.ReadExReq_miss_rate::total         0.990037                       # miss rate for ReadExReq accesses
system.l3.ReadSharedReq_miss_rate::cpu.inst            1                       # miss rate for ReadSharedReq accesses
system.l3.ReadSharedReq_miss_rate::cpu.data     0.453578                       # miss rate for ReadSharedReq accesses
system.l3.ReadSharedReq_miss_rate::total     0.454002                       # miss rate for ReadSharedReq accesses
system.l3.demand_miss_rate::cpu.inst                1                       # miss rate for demand accesses
system.l3.demand_miss_rate::cpu.data         0.519226                       # miss rate for demand accesses
system.l3.demand_miss_rate::total            0.519553                       # miss rate for demand accesses
system.l3.overall_miss_rate::cpu.inst               1                       # miss rate for overall accesses
system.l3.overall_miss_rate::cpu.data        0.519226                       # miss rate for overall accesses
system.l3.overall_miss_rate::total           0.519553                       # miss rate for overall accesses
system.l3.ReadExReq_avg_miss_latency::cpu.data 287138.721697                       # average ReadExReq miss latency
system.l3.ReadExReq_avg_miss_latency::total 287138.721697                       # average ReadExReq miss latency
system.l3.ReadSharedReq_avg_miss_latency::cpu.inst 163487.252125                       # average ReadSharedReq miss latency
system.l3.ReadSharedReq_avg_miss_latency::cpu.data 408895.989818                       # average ReadSharedReq miss latency
system.l3.ReadSharedReq_avg_miss_latency::total 408476.889542                       # average ReadSharedReq miss latency
system.l3.demand_avg_miss_latency::cpu.inst 163487.252125                       # average overall miss latency
system.l3.demand_avg_miss_latency::cpu.data 380486.020906                       # average overall miss latency
system.l3.demand_avg_miss_latency::total 380201.794026                       # average overall miss latency
system.l3.overall_avg_miss_latency::cpu.inst 163487.252125                       # average overall miss latency
system.l3.overall_avg_miss_latency::cpu.data 380486.020906                       # average overall miss latency
system.l3.overall_avg_miss_latency::total 380201.794026                       # average overall miss latency
system.l3.blocked_cycles::no_mshrs                  0                       # number of cycles access was blocked
system.l3.blocked_cycles::no_targets                0                       # number of cycles access was blocked
system.l3.blocked::no_mshrs                         0                       # number of cycles access was blocked
system.l3.blocked::no_targets                       0                       # number of cycles access was blocked
system.l3.avg_blocked_cycles::no_mshrs            nan                       # average number of cycles each access was blocked
system.l3.avg_blocked_cycles::no_targets          nan                       # average number of cycles each access was blocked
system.l3.writebacks::writebacks               246921                       # number of writebacks
system.l3.writebacks::total                    246921                       # number of writebacks
system.l3.CleanEvict_mshr_misses::writebacks          175                       # number of CleanEvict MSHR misses
system.l3.CleanEvict_mshr_misses::total           175                       # number of CleanEvict MSHR misses
system.l3.ReadExReq_mshr_misses::cpu.data        62802                       # number of ReadExReq MSHR misses
system.l3.ReadExReq_mshr_misses::total          62802                       # number of ReadExReq MSHR misses
system.l3.ReadSharedReq_mshr_misses::cpu.inst          353                       # number of ReadSharedReq MSHR misses
system.l3.ReadSharedReq_mshr_misses::cpu.data       206350                       # number of ReadSharedReq MSHR misses
system.l3.ReadSharedReq_mshr_misses::total       206703                       # number of ReadSharedReq MSHR misses
system.l3.demand_mshr_misses::cpu.inst            353                       # number of demand (read+write) MSHR misses
system.l3.demand_mshr_misses::cpu.data         269152                       # number of demand (read+write) MSHR misses
system.l3.demand_mshr_misses::total            269505                       # number of demand (read+write) MSHR misses
system.l3.overall_mshr_misses::cpu.inst           353                       # number of overall MSHR misses
system.l3.overall_mshr_misses::cpu.data        269152                       # number of overall MSHR misses
system.l3.overall_mshr_misses::total           269505                       # number of overall MSHR misses
system.l3.ReadExReq_mshr_miss_latency::cpu.data  17404866000                       # number of ReadExReq MSHR miss cycles
system.l3.ReadExReq_mshr_miss_latency::total  17404866000                       # number of ReadExReq MSHR miss cycles
system.l3.ReadSharedReq_mshr_miss_latency::cpu.inst     54181000                       # number of ReadSharedReq MSHR miss cycles
system.l3.ReadSharedReq_mshr_miss_latency::cpu.data  82312187499                       # number of ReadSharedReq MSHR miss cycles
system.l3.ReadSharedReq_mshr_miss_latency::total  82366368499                       # number of ReadSharedReq MSHR miss cycles
system.l3.demand_mshr_miss_latency::cpu.inst     54181000                       # number of demand (read+write) MSHR miss cycles
system.l3.demand_mshr_miss_latency::cpu.data  99717053499                       # number of demand (read+write) MSHR miss cycles
system.l3.demand_mshr_miss_latency::total  99771234499                       # number of demand (read+write) MSHR miss cycles
system.l3.overall_mshr_miss_latency::cpu.inst     54181000                       # number of overall MSHR miss cycles
system.l3.overall_mshr_miss_latency::cpu.data  99717053499                       # number of overall MSHR miss cycles
system.l3.overall_mshr_miss_latency::total  99771234499                       # number of overall MSHR miss cycles
system.l3.CleanEvict_mshr_miss_rate::writebacks          inf                       # mshr miss rate for CleanEvict accesses
system.l3.CleanEvict_mshr_miss_rate::total          inf                       # mshr miss rate for CleanEvict accesses
system.l3.ReadExReq_mshr_miss_rate::cpu.data     0.990037                       # mshr miss rate for ReadExReq accesses
system.l3.ReadExReq_mshr_miss_rate::total     0.990037                       # mshr miss rate for ReadExReq accesses
system.l3.ReadSharedReq_mshr_miss_rate::cpu.inst            1                       # mshr miss rate for ReadSharedReq accesses
system.l3.ReadSharedReq_mshr_miss_rate::cpu.data     0.453578                       # mshr miss rate for ReadSharedReq accesses
system.l3.ReadSharedReq_mshr_miss_rate::total     0.454002                       # mshr miss rate for ReadSharedReq accesses
system.l3.demand_mshr_miss_rate::cpu.inst            1                       # mshr miss rate for demand accesses
system.l3.demand_mshr_miss_rate::cpu.data     0.519226                       # mshr miss rate for demand accesses
system.l3.demand_mshr_miss_rate::total       0.519553                       # mshr miss rate for demand accesses
system.l3.overall_mshr_miss_rate::cpu.inst            1                       # mshr miss rate for overall accesses
system.l3.overall_mshr_miss_rate::cpu.data     0.519226                       # mshr miss rate for overall accesses
system.l3.overall_mshr_miss_rate::total      0.519553                       # mshr miss rate for overall accesses
system.l3.ReadExReq_avg_mshr_miss_latency::cpu.data 277138.721697                       # average ReadExReq mshr miss latency
system.l3.ReadExReq_avg_mshr_miss_latency::total 277138.721697                       # average ReadExReq mshr miss latency
system.l3.ReadSharedReq_avg_mshr_miss_latency::cpu.inst 153487.252125                       # average ReadSharedReq mshr miss latency
system.l3.ReadSharedReq_avg_mshr_miss_latency::cpu.data 398895.989818                       # average ReadSharedReq mshr miss latency
system.l3.ReadSharedReq_avg_mshr_miss_latency::total 398476.889542                       # average ReadSharedReq mshr miss latency
system.l3.demand_avg_mshr_miss_latency::cpu.inst 153487.252125                       # average overall mshr miss latency
system.l3.demand_avg_mshr_miss_latency::cpu.data 370486.020906                       # average overall mshr miss latency
system.l3.demand_avg_mshr_miss_latency::total 370201.794026                       # average overall mshr miss latency
system.l3.overall_avg_mshr_miss_latency::cpu.inst 153487.252125                       # average overall mshr miss latency
system.l3.overall_avg_mshr_miss_latency::cpu.data 370486.020906                       # average overall mshr miss latency
system.l3.overall_avg_mshr_miss_latency::total 370201.794026                       # average overall mshr miss latency
system.l3.replacements                         268728                       # number of replacements
system.membus.snoop_filter.tot_requests        527465                       # Total number of requests made to the snoop filter.
system.membus.snoop_filter.hit_single_requests       257960                       # Number of requests hitting in the snoop filter with a single holder of the requested data.
system.membus.snoop_filter.hit_multi_requests            0                       # Number of requests hitting in the snoop filter with multiple (>1) holders of the requested data.
system.membus.snoop_filter.tot_snoops               0                       # Total number of snoops made to the snoop filter.
system.membus.snoop_filter.hit_single_snoops            0                       # Number of snoops hitting in the snoop filter with a single holder of the requested data.
system.membus.snoop_filter.hit_multi_snoops            0                       # Number of snoops hitting in the snoop filter with multiple (>1) holders of the requested data.
system.membus.pwrStateResidencyTicks::UNDEFINED 1101445788000                       # Cumulative time (in ticks) in various power states
system.membus.trans_dist::ReadResp             206703                       # Transaction distribution
system.membus.trans_dist::WritebackDirty       246921                       # Transaction distribution
system.membus.trans_dist::CleanEvict             5916                       # Transaction distribution
system.membus.trans_dist::ReadExReq             62802                       # Transaction distribution
system.membus.trans_dist::ReadExResp            62802                       # Transaction distribution
system.membus.trans_dist::ReadSharedReq        206703                       # Transaction distribution
system.membus.pkt_count_system.l3.mem_side::system.mem_ctrls.port       791847                       # Packet count per connected master and slave (bytes)
system.membus.pkt_count_system.l3.mem_side::total       791847                       # Packet count per connected master and slave (bytes)
system.membus.pkt_count::total                 791847                       # Packet count per connected master and slave (bytes)
system.membus.pkt_size_system.l3.mem_side::system.mem_ctrls.port     33051264                       # Cumulative packet size per connected master and slave (bytes)
system.membus.pkt_size_system.l3.mem_side::total     33051264                       # Cumulative packet size per connected master and slave (bytes)
system.membus.pkt_size::total                33051264                       # Cumulative packet size per connected master and slave (bytes)
system.membus.snoops                                0                       # Total snoops (count)
system.membus.snoopTraffic                          0                       # Total snoop traffic (bytes)
system.membus.snoop_fanout::samples            269505                       # Request fanout histogram
system.membus.snoop_fanout::mean                    0                       # Request fanout histogram
system.membus.snoop_fanout::stdev                   0                       # Request fanout histogram
system.membus.snoop_fanout::underflows              0      0.00%      0.00% # Request fanout histogram
system.membus.snoop_fanout::0                  269505    100.00%    100.00% # Request fanout histogram
system.membus.snoop_fanout::1                       0      0.00%    100.00% # Request fanout histogram
system.membus.snoop_fanout::overflows               0      0.00%    100.00% # Request fanout histogram
system.membus.snoop_fanout::min_value               0                       # Request fanout histogram
system.membus.snoop_fanout::max_value               0                       # Request fanout histogram
system.membus.snoop_fanout::total              269505                       # Request fanout histogram
system.membus.reqLayer2.occupancy          1515151500                       # Layer occupancy (ticks)
system.membus.reqLayer2.utilization               0.1                       # Layer utilization (%)
system.membus.respLayer1.occupancy         1347526500                       # Layer occupancy (ticks)
system.membus.respLayer1.utilization              0.1                       # Layer utilization (%)
system.tol2bus.snoop_filter.tot_requests      1595243                       # Total number of requests made to the snoop filter.
system.tol2bus.snoop_filter.hit_single_requests       912344                       # Number of requests hitting in the snoop filter with a single holder of the requested data.
system.tol2bus.snoop_filter.hit_multi_requests            0                       # Number of requests hitting in the snoop filter with multiple (>1) holders of the requested data.
system.tol2bus.snoop_filter.tot_snoops           5370                       # Total number of snoops made to the snoop filter.
system.tol2bus.snoop_filter.hit_single_snoops         5370                       # Number of snoops hitting in the snoop filter with a single holder of the requested data.
system.tol2bus.snoop_filter.hit_multi_snoops            0                       # Number of snoops hitting in the snoop filter with multiple (>1) holders of the requested data.
system.tol2bus.pwrStateResidencyTicks::UNDEFINED 1101445788000                       # Cumulative time (in ticks) in various power states
system.tol2bus.trans_dist::ReadResp            616401                       # Transaction distribution
system.tol2bus.trans_dist::WritebackDirty      1166243                       # Transaction distribution
system.tol2bus.trans_dist::WritebackClean           48                       # Transaction distribution
system.tol2bus.trans_dist::CleanEvict           48638                       # Transaction distribution
system.tol2bus.trans_dist::UpgradeReq          230262                       # Transaction distribution
system.tol2bus.trans_dist::UpgradeResp         230262                       # Transaction distribution
system.tol2bus.trans_dist::ReadExReq            66498                       # Transaction distribution
system.tol2bus.trans_dist::ReadExResp           66498                       # Transaction distribution
system.tol2bus.trans_dist::ReadCleanReq           353                       # Transaction distribution
system.tol2bus.trans_dist::ReadSharedReq       616048                       # Transaction distribution
system.tol2bus.pkt_count_system.cpu.icache.mem_side::system.l2.cpu_side          754                       # Packet count per connected master and slave (bytes)
system.tol2bus.pkt_count_system.cpu.dcache.mem_side::system.l2.cpu_side      2507650                       # Packet count per connected master and slave (bytes)
system.tol2bus.pkt_count::total               2508404                       # Packet count per connected master and slave (bytes)
system.tol2bus.pkt_size_system.cpu.icache.mem_side::system.l2.cpu_side        25664                       # Cumulative packet size per connected master and slave (bytes)
system.tol2bus.pkt_size_system.cpu.dcache.mem_side::system.l2.cpu_side     85776000                       # Cumulative packet size per connected master and slave (bytes)
system.tol2bus.pkt_size::total               85801664                       # Cumulative packet size per connected master and slave (bytes)
system.tol2bus.snoops                          532847                       # Total snoops (count)
system.tol2bus.snoopTraffic                  32546496                       # Total snoop traffic (bytes)
system.tol2bus.snoop_fanout::samples          1446008                       # Request fanout histogram
system.tol2bus.snoop_fanout::mean            0.003714                       # Request fanout histogram
system.tol2bus.snoop_fanout::stdev           0.060827                       # Request fanout histogram
system.tol2bus.snoop_fanout::underflows             0      0.00%      0.00% # Request fanout histogram
system.tol2bus.snoop_fanout::0                1440638     99.63%     99.63% # Request fanout histogram
system.tol2bus.snoop_fanout::1                   5370      0.37%    100.00% # Request fanout histogram
system.tol2bus.snoop_fanout::2                      0      0.00%    100.00% # Request fanout histogram
system.tol2bus.snoop_fanout::3                      0      0.00%    100.00% # Request fanout histogram
system.tol2bus.snoop_fanout::4                      0      0.00%    100.00% # Request fanout histogram
system.tol2bus.snoop_fanout::overflows              0      0.00%    100.00% # Request fanout histogram
system.tol2bus.snoop_fanout::min_value              0                       # Request fanout histogram
system.tol2bus.snoop_fanout::max_value              1                       # Request fanout histogram
system.tol2bus.snoop_fanout::total            1446008                       # Request fanout histogram
system.tol2bus.reqLayer0.occupancy         1455373500                       # Layer occupancy (ticks)
system.tol2bus.reqLayer0.utilization              0.1                       # Layer utilization (%)
system.tol2bus.respLayer0.occupancy            529500                       # Layer occupancy (ticks)
system.tol2bus.respLayer0.utilization             0.0                       # Layer utilization (%)
system.tol2bus.respLayer1.occupancy        1138950000                       # Layer occupancy (ticks)
system.tol2bus.respLayer1.utilization             0.1                       # Layer utilization (%)
system.tol3bus.snoop_filter.tot_requests      1035137                       # Total number of requests made to the snoop filter.
system.tol3bus.snoop_filter.hit_single_requests       516410                       # Number of requests hitting in the snoop filter with a single holder of the requested data.
system.tol3bus.snoop_filter.hit_multi_requests            0                       # Number of requests hitting in the snoop filter with multiple (>1) holders of the requested data.
system.tol3bus.snoop_filter.tot_snoops          16066                       # Total number of snoops made to the snoop filter.
system.tol3bus.snoop_filter.hit_single_snoops        16066                       # Number of snoops hitting in the snoop filter with a single holder of the requested data.
system.tol3bus.snoop_filter.hit_multi_snoops            0                       # Number of snoops hitting in the snoop filter with multiple (>1) holders of the requested data.
system.tol3bus.pwrStateResidencyTicks::UNDEFINED 1101445788000                       # Cumulative time (in ticks) in various power states
system.tol3bus.trans_dist::ReadResp            455291                       # Transaction distribution
system.tol3bus.trans_dist::WritebackDirty       755459                       # Transaction distribution
system.tol3bus.trans_dist::CleanEvict           29679                       # Transaction distribution
system.tol3bus.trans_dist::ReadExReq            63434                       # Transaction distribution
system.tol3bus.trans_dist::ReadExResp           63434                       # Transaction distribution
system.tol3bus.trans_dist::ReadSharedReq       455291                       # Transaction distribution
system.tol3bus.pkt_count_system.l2.mem_side::system.l3.cpu_side      1553860                       # Packet count per connected master and slave (bytes)
system.tol3bus.pkt_size_system.l2.mem_side::system.l3.cpu_side     65744832                       # Cumulative packet size per connected master and slave (bytes)
system.tol3bus.snoops                          268728                       # Total snoops (count)
system.tol3bus.snoopTraffic                  15802944                       # Total snoop traffic (bytes)
system.tol3bus.snoop_fanout::samples           787455                       # Request fanout histogram
system.tol3bus.snoop_fanout::mean            0.020402                       # Request fanout histogram
system.tol3bus.snoop_fanout::stdev           0.141373                       # Request fanout histogram
system.tol3bus.snoop_fanout::underflows             0      0.00%      0.00% # Request fanout histogram
system.tol3bus.snoop_fanout::0                 771389     97.96%     97.96% # Request fanout histogram
system.tol3bus.snoop_fanout::1                  16066      2.04%    100.00% # Request fanout histogram
system.tol3bus.snoop_fanout::overflows              0      0.00%    100.00% # Request fanout histogram
system.tol3bus.snoop_fanout::min_value              0                       # Request fanout histogram
system.tol3bus.snoop_fanout::max_value              1                       # Request fanout histogram
system.tol3bus.snoop_fanout::total             787455                       # Request fanout histogram
system.tol3bus.reqLayer0.occupancy         1026107498                       # Layer occupancy (ticks)
system.tol3bus.reqLayer0.utilization              0.1                       # Layer utilization (%)
system.tol3bus.respLayer0.occupancy         778087501                       # Layer occupancy (ticks)
system.tol3bus.respLayer0.utilization             0.1                       # Layer utilization (%)

---------- End Simulation Statistics   ----------
