
---------- Begin Simulation Statistics ----------
sim_seconds                                  1.963313                       # Number of seconds simulated
sim_ticks                                1963312734000                       # Number of ticks simulated
final_tick                               1963312734000                       # Number of ticks from beginning of simulation (restored from checkpoints and never reset)
sim_freq                                 1000000000000                       # Frequency of simulated ticks
host_inst_rate                                 917822                       # Simulator instruction rate (inst/s)
host_op_rate                                  1470189                       # Simulator op (including micro ops) rate (op/s)
host_tick_rate                             1934108736                       # Simulator tick rate (ticks/s)
host_mem_usage                                 661192                       # Number of bytes of host memory used
host_seconds                                  1015.10                       # Real time elapsed on the host
sim_insts                                   931679894                       # Number of instructions simulated
sim_ops                                    1492387760                       # Number of ops (including micro ops) simulated
system.voltage_domain.voltage                       1                       # Voltage in Volts
system.clk_domain.clock                          1000                       # Clock period in ticks
system.mem_ctrls.pwrStateResidencyTicks::UNDEFINED 1963312734000                       # Cumulative time (in ticks) in various power states
system.mem_ctrls.bytes_read::cpu.inst           22528                       # Number of bytes read from this memory
system.mem_ctrls.bytes_read::cpu.data         1094848                       # Number of bytes read from this memory
system.mem_ctrls.bytes_read::total            1117376                       # Number of bytes read from this memory
system.mem_ctrls.bytes_inst_read::cpu.inst        22528                       # Number of instructions bytes read from this memory
system.mem_ctrls.bytes_inst_read::total         22528                       # Number of instructions bytes read from this memory
system.mem_ctrls.bytes_written::writebacks        44352                       # Number of bytes written to this memory
system.mem_ctrls.bytes_written::total           44352                       # Number of bytes written to this memory
system.mem_ctrls.num_reads::cpu.inst              352                       # Number of read requests responded to by this memory
system.mem_ctrls.num_reads::cpu.data            17107                       # Number of read requests responded to by this memory
system.mem_ctrls.num_reads::total               17459                       # Number of read requests responded to by this memory
system.mem_ctrls.num_writes::writebacks           693                       # Number of write requests responded to by this memory
system.mem_ctrls.num_writes::total                693                       # Number of write requests responded to by this memory
system.mem_ctrls.bw_read::cpu.inst              11474                       # Total read bandwidth from this memory (bytes/s)
system.mem_ctrls.bw_read::cpu.data             557653                       # Total read bandwidth from this memory (bytes/s)
system.mem_ctrls.bw_read::total                569128                       # Total read bandwidth from this memory (bytes/s)
system.mem_ctrls.bw_inst_read::cpu.inst         11474                       # Instruction read bandwidth from this memory (bytes/s)
system.mem_ctrls.bw_inst_read::total            11474                       # Instruction read bandwidth from this memory (bytes/s)
system.mem_ctrls.bw_write::writebacks           22590                       # Write bandwidth from this memory (bytes/s)
system.mem_ctrls.bw_write::total                22590                       # Write bandwidth from this memory (bytes/s)
system.mem_ctrls.bw_total::writebacks           22590                       # Total bandwidth to/from this memory (bytes/s)
system.mem_ctrls.bw_total::cpu.inst             11474                       # Total bandwidth to/from this memory (bytes/s)
system.mem_ctrls.bw_total::cpu.data            557653                       # Total bandwidth to/from this memory (bytes/s)
system.mem_ctrls.bw_total::total               591718                       # Total bandwidth to/from this memory (bytes/s)
system.pwrStateResidencyTicks::UNDEFINED 1963312734000                       # Cumulative time (in ticks) in various power states
system.cpu_voltage_domain.voltage                   1                       # Voltage in Volts
system.cpu_clk_domain.clock                       500                       # Clock period in ticks
system.cpu.dtb.walker.pwrStateResidencyTicks::UNDEFINED 1963312734000                       # Cumulative time (in ticks) in various power states
system.cpu.dtb.rdAccesses                   382684104                       # TLB accesses on read requests
system.cpu.dtb.wrAccesses                    56342478                       # TLB accesses on write requests
system.cpu.dtb.rdMisses                       7936310                       # TLB misses on read requests
system.cpu.dtb.wrMisses                           272                       # TLB misses on write requests
system.cpu.apic_clk_domain.clock                 8000                       # Clock period in ticks
system.cpu.interrupts.pwrStateResidencyTicks::UNDEFINED 1963312734000                       # Cumulative time (in ticks) in various power states
system.cpu.itb.walker.pwrStateResidencyTicks::UNDEFINED 1963312734000                       # Cumulative time (in ticks) in various power states
system.cpu.itb.rdAccesses                           0                       # TLB accesses on read requests
system.cpu.itb.wrAccesses                  1449455617                       # TLB accesses on write requests
system.cpu.itb.rdMisses                             0                       # TLB misses on read requests
system.cpu.itb.wrMisses                            35                       # TLB misses on write requests
system.cpu.workload.numSyscalls                     9                       # Number of system calls
system.cpu.pwrStateResidencyTicks::ON    1963312734000                       # Cumulative time (in ticks) in various power states
system.cpu.numCycles                       3926625468                       # number of cpu cycles simulated
system.cpu.numWorkItemsStarted                      0                       # number of work items this cpu started
system.cpu.numWorkItemsCompleted                    0                       # number of work items this cpu completed
system.cpu.committedInsts                   931679894                       # Number of instructions committed
system.cpu.committedOps                    1492387760                       # Number of ops (including micro ops) committed
system.cpu.num_int_alu_accesses            1491881046                       # Number of integer alu accesses
system.cpu.num_fp_alu_accesses                   1943                       # Number of float alu accesses
system.cpu.num_vec_alu_accesses                     0                       # Number of vector alu accesses
system.cpu.num_func_calls                     1080242                       # number of times a function call or return occured
system.cpu.num_conditional_control_insts     29571458                       # number of instructions that are conditional controls
system.cpu.num_int_insts                   1491881046                       # number of integer instructions
system.cpu.num_fp_insts                          1943                       # number of float instructions
system.cpu.num_vec_insts                            0                       # number of vector instructions
system.cpu.num_int_register_reads          2934935000                       # number of times the integer registers were read
system.cpu.num_int_register_writes         1545692936                       # number of times the integer registers were written
system.cpu.num_fp_register_reads                 3767                       # number of times the floating registers were read
system.cpu.num_fp_register_writes                1480                       # number of times the floating registers were written
system.cpu.num_vec_register_reads                   0                       # number of times the vector registers were read
system.cpu.num_vec_register_writes                  0                       # number of times the vector registers were written
system.cpu.num_cc_register_reads            159199317                       # number of times the CC registers were read
system.cpu.num_cc_register_writes           523310522                       # number of times the CC registers were written
system.cpu.num_mem_refs                     439026579                       # number of memory refs
system.cpu.num_load_insts                   382684101                       # Number of load instructions
system.cpu.num_store_insts                   56342478                       # Number of store instructions
system.cpu.num_idle_cycles                          0                       # Number of idle cycles
system.cpu.num_busy_cycles                 3926625468                       # Number of busy cycles
system.cpu.not_idle_fraction                        1                       # Percentage of non-idle cycles
system.cpu.idle_fraction                            0                       # Percentage of idle cycles
system.cpu.Branches                          30742410                       # Number of branches fetched
system.cpu.op_class::No_OpClass                505293      0.03%      0.03% # Class of executed instruction
system.cpu.op_class::IntAlu                 915024142     61.31%     61.35% # Class of executed instruction
system.cpu.op_class::IntMult                135270004      9.06%     70.41% # Class of executed instruction
system.cpu.op_class::IntDiv                   2560782      0.17%     70.58% # Class of executed instruction
system.cpu.op_class::FloatAdd                      10      0.00%     70.58% # Class of executed instruction
system.cpu.op_class::FloatCmp                       0      0.00%     70.58% # Class of executed instruction
system.cpu.op_class::FloatCvt                       0      0.00%     70.58% # Class of executed instruction
system.cpu.op_class::FloatMult                      0      0.00%     70.58% # Class of executed instruction
system.cpu.op_class::FloatMultAcc                   0      0.00%     70.58% # Class of executed instruction
system.cpu.op_class::FloatDiv                       0      0.00%     70.58% # Class of executed instruction
system.cpu.op_class::FloatMisc                      0      0.00%     70.58% # Class of executed instruction
system.cpu.op_class::FloatSqrt                      0      0.00%     70.58% # Class of executed instruction
system.cpu.op_class::SimdAdd                      374      0.00%     70.58% # Class of executed instruction
system.cpu.op_class::SimdAddAcc                     0      0.00%     70.58% # Class of executed instruction
system.cpu.op_class::SimdAlu                       68      0.00%     70.58% # Class of executed instruction
system.cpu.op_class::SimdCmp                        0      0.00%     70.58% # Class of executed instruction
system.cpu.op_class::SimdCvt                      108      0.00%     70.58% # Class of executed instruction
system.cpu.op_class::SimdMisc                     214      0.00%     70.58% # Class of executed instruction
system.cpu.op_class::SimdMult                       0      0.00%     70.58% # Class of executed instruction
system.cpu.op_class::SimdMultAcc                    0      0.00%     70.58% # Class of executed instruction
system.cpu.op_class::SimdShift                    186      0.00%     70.58% # Class of executed instruction
system.cpu.op_class::SimdShiftAcc                   0      0.00%     70.58% # Class of executed instruction
system.cpu.op_class::SimdSqrt                       0      0.00%     70.58% # Class of executed instruction
system.cpu.op_class::SimdFloatAdd                   0      0.00%     70.58% # Class of executed instruction
system.cpu.op_class::SimdFloatAlu                   0      0.00%     70.58% # Class of executed instruction
system.cpu.op_class::SimdFloatCmp                   0      0.00%     70.58% # Class of executed instruction
system.cpu.op_class::SimdFloatCvt                   0      0.00%     70.58% # Class of executed instruction
system.cpu.op_class::SimdFloatDiv                   0      0.00%     70.58% # Class of executed instruction
system.cpu.op_class::SimdFloatMisc                  0      0.00%     70.58% # Class of executed instruction
system.cpu.op_class::SimdFloatMult                  0      0.00%     70.58% # Class of executed instruction
system.cpu.op_class::SimdFloatMultAcc               0      0.00%     70.58% # Class of executed instruction
system.cpu.op_class::SimdFloatSqrt                  0      0.00%     70.58% # Class of executed instruction
system.cpu.op_class::MemRead                382684045     25.64%     96.22% # Class of executed instruction
system.cpu.op_class::MemWrite                56342063      3.78%    100.00% # Class of executed instruction
system.cpu.op_class::FloatMemRead                  56      0.00%    100.00% # Class of executed instruction
system.cpu.op_class::FloatMemWrite                415      0.00%    100.00% # Class of executed instruction
system.cpu.op_class::IprAccess                      0      0.00%    100.00% # Class of executed instruction
system.cpu.op_class::InstPrefetch                   0      0.00%    100.00% # Class of executed instruction
system.cpu.op_class::total                 1492387760                       # Class of executed instruction
system.cpu.dcache.tags.pwrStateResidencyTicks::UNDEFINED 1963312734000                       # Cumulative time (in ticks) in various power states
system.cpu.dcache.tags.tagsinuse           511.895355                       # Cycle average of tags in use
system.cpu.dcache.tags.total_refs           439026582                       # Total number of references to valid blocks.
system.cpu.dcache.tags.sampled_refs           3126569                       # Sample count of references to valid blocks.
system.cpu.dcache.tags.avg_refs            140.418005                       # Average number of references to valid blocks.
system.cpu.dcache.tags.warmup_cycle            759000                       # Cycle when the warmup percentage was hit.
system.cpu.dcache.tags.occ_blocks::cpu.data   511.895355                       # Average occupied blocks per requestor
system.cpu.dcache.tags.occ_percent::cpu.data     0.999796                       # Average percentage of cache occupancy
system.cpu.dcache.tags.occ_percent::total     0.999796                       # Average percentage of cache occupancy
system.cpu.dcache.tags.occ_task_id_blocks::1024          512                       # Occupied blocks per task id
system.cpu.dcache.tags.age_task_id_blocks_1024::0           10                       # Occupied blocks per task id
system.cpu.dcache.tags.age_task_id_blocks_1024::1           50                       # Occupied blocks per task id
system.cpu.dcache.tags.age_task_id_blocks_1024::2          451                       # Occupied blocks per task id
system.cpu.dcache.tags.age_task_id_blocks_1024::4            1                       # Occupied blocks per task id
system.cpu.dcache.tags.occ_task_id_percent::1024            1                       # Percentage of cache occupancy per task id
system.cpu.dcache.tags.tag_accesses         881179733                       # Number of tag accesses
system.cpu.dcache.tags.data_accesses        881179733                       # Number of data accesses
system.cpu.dcache.pwrStateResidencyTicks::UNDEFINED 1963312734000                       # Cumulative time (in ticks) in various power states
system.cpu.dcache.ReadReq_hits::cpu.data    379577676                       # number of ReadReq hits
system.cpu.dcache.ReadReq_hits::total       379577676                       # number of ReadReq hits
system.cpu.dcache.WriteReq_hits::cpu.data     56322337                       # number of WriteReq hits
system.cpu.dcache.WriteReq_hits::total       56322337                       # number of WriteReq hits
system.cpu.dcache.demand_hits::cpu.data     435900013                       # number of demand (read+write) hits
system.cpu.dcache.demand_hits::total        435900013                       # number of demand (read+write) hits
system.cpu.dcache.overall_hits::cpu.data    435900013                       # number of overall hits
system.cpu.dcache.overall_hits::total       435900013                       # number of overall hits
system.cpu.dcache.ReadReq_misses::cpu.data      3106428                       # number of ReadReq misses
system.cpu.dcache.ReadReq_misses::total       3106428                       # number of ReadReq misses
system.cpu.dcache.WriteReq_misses::cpu.data        20141                       # number of WriteReq misses
system.cpu.dcache.WriteReq_misses::total        20141                       # number of WriteReq misses
system.cpu.dcache.demand_misses::cpu.data      3126569                       # number of demand (read+write) misses
system.cpu.dcache.demand_misses::total        3126569                       # number of demand (read+write) misses
system.cpu.dcache.overall_misses::cpu.data      3126569                       # number of overall misses
system.cpu.dcache.overall_misses::total       3126569                       # number of overall misses
system.cpu.dcache.ReadReq_miss_latency::cpu.data  75976995500                       # number of ReadReq miss cycles
system.cpu.dcache.ReadReq_miss_latency::total  75976995500                       # number of ReadReq miss cycles
system.cpu.dcache.WriteReq_miss_latency::cpu.data   1918060000                       # number of WriteReq miss cycles
system.cpu.dcache.WriteReq_miss_latency::total   1918060000                       # number of WriteReq miss cycles
system.cpu.dcache.demand_miss_latency::cpu.data  77895055500                       # number of demand (read+write) miss cycles
system.cpu.dcache.demand_miss_latency::total  77895055500                       # number of demand (read+write) miss cycles
system.cpu.dcache.overall_miss_latency::cpu.data  77895055500                       # number of overall miss cycles
system.cpu.dcache.overall_miss_latency::total  77895055500                       # number of overall miss cycles
system.cpu.dcache.ReadReq_accesses::cpu.data    382684104                       # number of ReadReq accesses(hits+misses)
system.cpu.dcache.ReadReq_accesses::total    382684104                       # number of ReadReq accesses(hits+misses)
system.cpu.dcache.WriteReq_accesses::cpu.data     56342478                       # number of WriteReq accesses(hits+misses)
system.cpu.dcache.WriteReq_accesses::total     56342478                       # number of WriteReq accesses(hits+misses)
system.cpu.dcache.demand_accesses::cpu.data    439026582                       # number of demand (read+write) accesses
system.cpu.dcache.demand_accesses::total    439026582                       # number of demand (read+write) accesses
system.cpu.dcache.overall_accesses::cpu.data    439026582                       # number of overall (read+write) accesses
system.cpu.dcache.overall_accesses::total    439026582                       # number of overall (read+write) accesses
system.cpu.dcache.ReadReq_miss_rate::cpu.data     0.008117                       # miss rate for ReadReq accesses
system.cpu.dcache.ReadReq_miss_rate::total     0.008117                       # miss rate for ReadReq accesses
system.cpu.dcache.WriteReq_miss_rate::cpu.data     0.000357                       # miss rate for WriteReq accesses
system.cpu.dcache.WriteReq_miss_rate::total     0.000357                       # miss rate for WriteReq accesses
system.cpu.dcache.demand_miss_rate::cpu.data     0.007122                       # miss rate for demand accesses
system.cpu.dcache.demand_miss_rate::total     0.007122                       # miss rate for demand accesses
system.cpu.dcache.overall_miss_rate::cpu.data     0.007122                       # miss rate for overall accesses
system.cpu.dcache.overall_miss_rate::total     0.007122                       # miss rate for overall accesses
system.cpu.dcache.ReadReq_avg_miss_latency::cpu.data 24457.993393                       # average ReadReq miss latency
system.cpu.dcache.ReadReq_avg_miss_latency::total 24457.993393                       # average ReadReq miss latency
system.cpu.dcache.WriteReq_avg_miss_latency::cpu.data 95231.617099                       # average WriteReq miss latency
system.cpu.dcache.WriteReq_avg_miss_latency::total 95231.617099                       # average WriteReq miss latency
system.cpu.dcache.demand_avg_miss_latency::cpu.data 24913.908985                       # average overall miss latency
system.cpu.dcache.demand_avg_miss_latency::total 24913.908985                       # average overall miss latency
system.cpu.dcache.overall_avg_miss_latency::cpu.data 24913.908985                       # average overall miss latency
system.cpu.dcache.overall_avg_miss_latency::total 24913.908985                       # average overall miss latency
system.cpu.dcache.blocked_cycles::no_mshrs            0                       # number of cycles access was blocked
system.cpu.dcache.blocked_cycles::no_targets            0                       # number of cycles access was blocked
system.cpu.dcache.blocked::no_mshrs                 0                       # number of cycles access was blocked
system.cpu.dcache.blocked::no_targets               0                       # number of cycles access was blocked
system.cpu.dcache.avg_blocked_cycles::no_mshrs          nan                       # average number of cycles each access was blocked
system.cpu.dcache.avg_blocked_cycles::no_targets          nan                       # average number of cycles each access was blocked
system.cpu.dcache.writebacks::writebacks      1432531                       # number of writebacks
system.cpu.dcache.writebacks::total           1432531                       # number of writebacks
system.cpu.dcache.ReadReq_mshr_misses::cpu.data      3106428                       # number of ReadReq MSHR misses
system.cpu.dcache.ReadReq_mshr_misses::total      3106428                       # number of ReadReq MSHR misses
system.cpu.dcache.WriteReq_mshr_misses::cpu.data        20141                       # number of WriteReq MSHR misses
system.cpu.dcache.WriteReq_mshr_misses::total        20141                       # number of WriteReq MSHR misses
system.cpu.dcache.demand_mshr_misses::cpu.data      3126569                       # number of demand (read+write) MSHR misses
system.cpu.dcache.demand_mshr_misses::total      3126569                       # number of demand (read+write) MSHR misses
system.cpu.dcache.overall_mshr_misses::cpu.data      3126569                       # number of overall MSHR misses
system.cpu.dcache.overall_mshr_misses::total      3126569                       # number of overall MSHR misses
system.cpu.dcache.ReadReq_mshr_miss_latency::cpu.data  72870567500                       # number of ReadReq MSHR miss cycles
system.cpu.dcache.ReadReq_mshr_miss_latency::total  72870567500                       # number of ReadReq MSHR miss cycles
system.cpu.dcache.WriteReq_mshr_miss_latency::cpu.data   1897919000                       # number of WriteReq MSHR miss cycles
system.cpu.dcache.WriteReq_mshr_miss_latency::total   1897919000                       # number of WriteReq MSHR miss cycles
system.cpu.dcache.demand_mshr_miss_latency::cpu.data  74768486500                       # number of demand (read+write) MSHR miss cycles
system.cpu.dcache.demand_mshr_miss_latency::total  74768486500                       # number of demand (read+write) MSHR miss cycles
system.cpu.dcache.overall_mshr_miss_latency::cpu.data  74768486500                       # number of overall MSHR miss cycles
system.cpu.dcache.overall_mshr_miss_latency::total  74768486500                       # number of overall MSHR miss cycles
system.cpu.dcache.ReadReq_mshr_miss_rate::cpu.data     0.008117                       # mshr miss rate for ReadReq accesses
system.cpu.dcache.ReadReq_mshr_miss_rate::total     0.008117                       # mshr miss rate for ReadReq accesses
system.cpu.dcache.WriteReq_mshr_miss_rate::cpu.data     0.000357                       # mshr miss rate for WriteReq accesses
system.cpu.dcache.WriteReq_mshr_miss_rate::total     0.000357                       # mshr miss rate for WriteReq accesses
system.cpu.dcache.demand_mshr_miss_rate::cpu.data     0.007122                       # mshr miss rate for demand accesses
system.cpu.dcache.demand_mshr_miss_rate::total     0.007122                       # mshr miss rate for demand accesses
system.cpu.dcache.overall_mshr_miss_rate::cpu.data     0.007122                       # mshr miss rate for overall accesses
system.cpu.dcache.overall_mshr_miss_rate::total     0.007122                       # mshr miss rate for overall accesses
system.cpu.dcache.ReadReq_avg_mshr_miss_latency::cpu.data 23457.993393                       # average ReadReq mshr miss latency
system.cpu.dcache.ReadReq_avg_mshr_miss_latency::total 23457.993393                       # average ReadReq mshr miss latency
system.cpu.dcache.WriteReq_avg_mshr_miss_latency::cpu.data 94231.617099                       # average WriteReq mshr miss latency
system.cpu.dcache.WriteReq_avg_mshr_miss_latency::total 94231.617099                       # average WriteReq mshr miss latency
system.cpu.dcache.demand_avg_mshr_miss_latency::cpu.data 23913.908985                       # average overall mshr miss latency
system.cpu.dcache.demand_avg_mshr_miss_latency::total 23913.908985                       # average overall mshr miss latency
system.cpu.dcache.overall_avg_mshr_miss_latency::cpu.data 23913.908985                       # average overall mshr miss latency
system.cpu.dcache.overall_avg_mshr_miss_latency::total 23913.908985                       # average overall mshr miss latency
system.cpu.dcache.replacements                3126057                       # number of replacements
system.cpu.dtb_walker_cache.tags.pwrStateResidencyTicks::UNDEFINED 1963312734000                       # Cumulative time (in ticks) in various power states
system.cpu.dtb_walker_cache.tags.tagsinuse            0                       # Cycle average of tags in use
system.cpu.dtb_walker_cache.tags.total_refs            0                       # Total number of references to valid blocks.
system.cpu.dtb_walker_cache.tags.sampled_refs            0                       # Sample count of references to valid blocks.
system.cpu.dtb_walker_cache.tags.avg_refs          nan                       # Average number of references to valid blocks.
system.cpu.dtb_walker_cache.tags.warmup_cycle            0                       # Cycle when the warmup percentage was hit.
system.cpu.dtb_walker_cache.tags.tag_accesses            0                       # Number of tag accesses
system.cpu.dtb_walker_cache.tags.data_accesses            0                       # Number of data accesses
system.cpu.dtb_walker_cache.pwrStateResidencyTicks::UNDEFINED 1963312734000                       # Cumulative time (in ticks) in various power states
system.cpu.dtb_walker_cache.blocked_cycles::no_mshrs            0                       # number of cycles access was blocked
system.cpu.dtb_walker_cache.blocked_cycles::no_targets            0                       # number of cycles access was blocked
system.cpu.dtb_walker_cache.blocked::no_mshrs            0                       # number of cycles access was blocked
system.cpu.dtb_walker_cache.blocked::no_targets            0                       # number of cycles access was blocked
system.cpu.dtb_walker_cache.avg_blocked_cycles::no_mshrs          nan                       # average number of cycles each access was blocked
system.cpu.dtb_walker_cache.avg_blocked_cycles::no_targets          nan                       # average number of cycles each access was blocked
system.cpu.dtb_walker_cache.replacements            0                       # number of replacements
system.cpu.icache.tags.pwrStateResidencyTicks::UNDEFINED 1963312734000                       # Cumulative time (in ticks) in various power states
system.cpu.icache.tags.tagsinuse           279.958123                       # Cycle average of tags in use
system.cpu.icache.tags.total_refs          1449455617                       # Total number of references to valid blocks.
system.cpu.icache.tags.sampled_refs               352                       # Sample count of references to valid blocks.
system.cpu.icache.tags.avg_refs          4117771.639205                       # Average number of references to valid blocks.
system.cpu.icache.tags.warmup_cycle            439000                       # Cycle when the warmup percentage was hit.
system.cpu.icache.tags.occ_blocks::cpu.inst   279.958123                       # Average occupied blocks per requestor
system.cpu.icache.tags.occ_percent::cpu.inst     0.546793                       # Average percentage of cache occupancy
system.cpu.icache.tags.occ_percent::total     0.546793                       # Average percentage of cache occupancy
system.cpu.icache.tags.occ_task_id_blocks::1024          306                       # Occupied blocks per task id
system.cpu.icache.tags.age_task_id_blocks_1024::0           15                       # Occupied blocks per task id
system.cpu.icache.tags.age_task_id_blocks_1024::1           24                       # Occupied blocks per task id
system.cpu.icache.tags.age_task_id_blocks_1024::4          267                       # Occupied blocks per task id
system.cpu.icache.tags.occ_task_id_percent::1024     0.597656                       # Percentage of cache occupancy per task id
system.cpu.icache.tags.tag_accesses        2898911586                       # Number of tag accesses
system.cpu.icache.tags.data_accesses       2898911586                       # Number of data accesses
system.cpu.icache.pwrStateResidencyTicks::UNDEFINED 1963312734000                       # Cumulative time (in ticks) in various power states
system.cpu.icache.ReadReq_hits::cpu.inst   1449455265                       # number of ReadReq hits
system.cpu.icache.ReadReq_hits::total      1449455265                       # number of ReadReq hits
system.cpu.icache.demand_hits::cpu.inst    1449455265                       # number of demand (read+write) hits
system.cpu.icache.demand_hits::total       1449455265                       # number of demand (read+write) hits
system.cpu.icache.overall_hits::cpu.inst   1449455265                       # number of overall hits
system.cpu.icache.overall_hits::total      1449455265                       # number of overall hits
system.cpu.icache.ReadReq_misses::cpu.inst          352                       # number of ReadReq misses
system.cpu.icache.ReadReq_misses::total           352                       # number of ReadReq misses
system.cpu.icache.demand_misses::cpu.inst          352                       # number of demand (read+write) misses
system.cpu.icache.demand_misses::total            352                       # number of demand (read+write) misses
system.cpu.icache.overall_misses::cpu.inst          352                       # number of overall misses
system.cpu.icache.overall_misses::total           352                       # number of overall misses
system.cpu.icache.ReadReq_miss_latency::cpu.inst     62404000                       # number of ReadReq miss cycles
system.cpu.icache.ReadReq_miss_latency::total     62404000                       # number of ReadReq miss cycles
system.cpu.icache.demand_miss_latency::cpu.inst     62404000                       # number of demand (read+write) miss cycles
system.cpu.icache.demand_miss_latency::total     62404000                       # number of demand (read+write) miss cycles
system.cpu.icache.overall_miss_latency::cpu.inst     62404000                       # number of overall miss cycles
system.cpu.icache.overall_miss_latency::total     62404000                       # number of overall miss cycles
system.cpu.icache.ReadReq_accesses::cpu.inst   1449455617                       # number of ReadReq accesses(hits+misses)
system.cpu.icache.ReadReq_accesses::total   1449455617                       # number of ReadReq accesses(hits+misses)
system.cpu.icache.demand_accesses::cpu.inst   1449455617                       # number of demand (read+write) accesses
system.cpu.icache.demand_accesses::total   1449455617                       # number of demand (read+write) accesses
system.cpu.icache.overall_accesses::cpu.inst   1449455617                       # number of overall (read+write) accesses
system.cpu.icache.overall_accesses::total   1449455617                       # number of overall (read+write) accesses
system.cpu.icache.ReadReq_miss_rate::cpu.inst     0.000000                       # miss rate for ReadReq accesses
system.cpu.icache.ReadReq_miss_rate::total     0.000000                       # miss rate for ReadReq accesses
system.cpu.icache.demand_miss_rate::cpu.inst     0.000000                       # miss rate for demand accesses
system.cpu.icache.demand_miss_rate::total     0.000000                       # miss rate for demand accesses
system.cpu.icache.overall_miss_rate::cpu.inst     0.000000                       # miss rate for overall accesses
system.cpu.icache.overall_miss_rate::total     0.000000                       # miss rate for overall accesses
system.cpu.icache.ReadReq_avg_miss_latency::cpu.inst 177284.090909                       # average ReadReq miss latency
system.cpu.icache.ReadReq_avg_miss_latency::total 177284.090909                       # average ReadReq miss latency
system.cpu.icache.demand_avg_miss_latency::cpu.inst 177284.090909                       # average overall miss latency
system.cpu.icache.demand_avg_miss_latency::total 177284.090909                       # average overall miss latency
system.cpu.icache.overall_avg_miss_latency::cpu.inst 177284.090909                       # average overall miss latency
system.cpu.icache.overall_avg_miss_latency::total 177284.090909                       # average overall miss latency
system.cpu.icache.blocked_cycles::no_mshrs            0                       # number of cycles access was blocked
system.cpu.icache.blocked_cycles::no_targets            0                       # number of cycles access was blocked
system.cpu.icache.blocked::no_mshrs                 0                       # number of cycles access was blocked
system.cpu.icache.blocked::no_targets               0                       # number of cycles access was blocked
system.cpu.icache.avg_blocked_cycles::no_mshrs          nan                       # average number of cycles each access was blocked
system.cpu.icache.avg_blocked_cycles::no_targets          nan                       # average number of cycles each access was blocked
system.cpu.icache.writebacks::writebacks           46                       # number of writebacks
system.cpu.icache.writebacks::total                46                       # number of writebacks
system.cpu.icache.ReadReq_mshr_misses::cpu.inst          352                       # number of ReadReq MSHR misses
system.cpu.icache.ReadReq_mshr_misses::total          352                       # number of ReadReq MSHR misses
system.cpu.icache.demand_mshr_misses::cpu.inst          352                       # number of demand (read+write) MSHR misses
system.cpu.icache.demand_mshr_misses::total          352                       # number of demand (read+write) MSHR misses
system.cpu.icache.overall_mshr_misses::cpu.inst          352                       # number of overall MSHR misses
system.cpu.icache.overall_mshr_misses::total          352                       # number of overall MSHR misses
system.cpu.icache.ReadReq_mshr_miss_latency::cpu.inst     62052000                       # number of ReadReq MSHR miss cycles
system.cpu.icache.ReadReq_mshr_miss_latency::total     62052000                       # number of ReadReq MSHR miss cycles
system.cpu.icache.demand_mshr_miss_latency::cpu.inst     62052000                       # number of demand (read+write) MSHR miss cycles
system.cpu.icache.demand_mshr_miss_latency::total     62052000                       # number of demand (read+write) MSHR miss cycles
system.cpu.icache.overall_mshr_miss_latency::cpu.inst     62052000                       # number of overall MSHR miss cycles
system.cpu.icache.overall_mshr_miss_latency::total     62052000                       # number of overall MSHR miss cycles
system.cpu.icache.ReadReq_mshr_miss_rate::cpu.inst     0.000000                       # mshr miss rate for ReadReq accesses
system.cpu.icache.ReadReq_mshr_miss_rate::total     0.000000                       # mshr miss rate for ReadReq accesses
system.cpu.icache.demand_mshr_miss_rate::cpu.inst     0.000000                       # mshr miss rate for demand accesses
system.cpu.icache.demand_mshr_miss_rate::total     0.000000                       # mshr miss rate for demand accesses
system.cpu.icache.overall_mshr_miss_rate::cpu.inst     0.000000                       # mshr miss rate for overall accesses
system.cpu.icache.overall_mshr_miss_rate::total     0.000000                       # mshr miss rate for overall accesses
system.cpu.icache.ReadReq_avg_mshr_miss_latency::cpu.inst 176284.090909                       # average ReadReq mshr miss latency
system.cpu.icache.ReadReq_avg_mshr_miss_latency::total 176284.090909                       # average ReadReq mshr miss latency
system.cpu.icache.demand_avg_mshr_miss_latency::cpu.inst 176284.090909                       # average overall mshr miss latency
system.cpu.icache.demand_avg_mshr_miss_latency::total 176284.090909                       # average overall mshr miss latency
system.cpu.icache.overall_avg_mshr_miss_latency::cpu.inst 176284.090909                       # average overall mshr miss latency
system.cpu.icache.overall_avg_mshr_miss_latency::total 176284.090909                       # average overall mshr miss latency
system.cpu.icache.replacements                     46                       # number of replacements
system.cpu.itb_walker_cache.tags.pwrStateResidencyTicks::UNDEFINED 1963312734000                       # Cumulative time (in ticks) in various power states
system.cpu.itb_walker_cache.tags.tagsinuse            0                       # Cycle average of tags in use
system.cpu.itb_walker_cache.tags.total_refs            0                       # Total number of references to valid blocks.
system.cpu.itb_walker_cache.tags.sampled_refs            0                       # Sample count of references to valid blocks.
system.cpu.itb_walker_cache.tags.avg_refs          nan                       # Average number of references to valid blocks.
system.cpu.itb_walker_cache.tags.warmup_cycle            0                       # Cycle when the warmup percentage was hit.
system.cpu.itb_walker_cache.tags.tag_accesses            0                       # Number of tag accesses
system.cpu.itb_walker_cache.tags.data_accesses            0                       # Number of data accesses
system.cpu.itb_walker_cache.pwrStateResidencyTicks::UNDEFINED 1963312734000                       # Cumulative time (in ticks) in various power states
system.cpu.itb_walker_cache.blocked_cycles::no_mshrs            0                       # number of cycles access was blocked
system.cpu.itb_walker_cache.blocked_cycles::no_targets            0                       # number of cycles access was blocked
system.cpu.itb_walker_cache.blocked::no_mshrs            0                       # number of cycles access was blocked
system.cpu.itb_walker_cache.blocked::no_targets            0                       # number of cycles access was blocked
system.cpu.itb_walker_cache.avg_blocked_cycles::no_mshrs          nan                       # average number of cycles each access was blocked
system.cpu.itb_walker_cache.avg_blocked_cycles::no_targets          nan                       # average number of cycles each access was blocked
system.cpu.itb_walker_cache.replacements            0                       # number of replacements
system.l2.tags.pwrStateResidencyTicks::UNDEFINED 1963312734000                       # Cumulative time (in ticks) in various power states
system.l2.tags.tagsinuse                  2046.628854                       # Cycle average of tags in use
system.l2.tags.total_refs                     6253024                       # Total number of references to valid blocks.
system.l2.tags.sampled_refs                   1710865                       # Sample count of references to valid blocks.
system.l2.tags.avg_refs                      3.654890                       # Average number of references to valid blocks.
system.l2.tags.warmup_cycle                    428500                       # Cycle when the warmup percentage was hit.
system.l2.tags.occ_blocks::writebacks        0.007524                       # Average occupied blocks per requestor
system.l2.tags.occ_blocks::cpu.inst          0.506450                       # Average occupied blocks per requestor
system.l2.tags.occ_blocks::cpu.data       2046.114880                       # Average occupied blocks per requestor
system.l2.tags.occ_percent::writebacks       0.000004                       # Average percentage of cache occupancy
system.l2.tags.occ_percent::cpu.inst         0.000247                       # Average percentage of cache occupancy
system.l2.tags.occ_percent::cpu.data         0.999080                       # Average percentage of cache occupancy
system.l2.tags.occ_percent::total            0.999330                       # Average percentage of cache occupancy
system.l2.tags.occ_task_id_blocks::1024          2048                       # Occupied blocks per task id
system.l2.tags.age_task_id_blocks_1024::0           35                       # Occupied blocks per task id
system.l2.tags.age_task_id_blocks_1024::1           67                       # Occupied blocks per task id
system.l2.tags.age_task_id_blocks_1024::2          802                       # Occupied blocks per task id
system.l2.tags.age_task_id_blocks_1024::3         1143                       # Occupied blocks per task id
system.l2.tags.age_task_id_blocks_1024::4            1                       # Occupied blocks per task id
system.l2.tags.occ_task_id_percent::1024            1                       # Percentage of cache occupancy per task id
system.l2.tags.tag_accesses                  51735057                       # Number of tag accesses
system.l2.tags.data_accesses                 51735057                       # Number of data accesses
system.l2.pwrStateResidencyTicks::UNDEFINED 1963312734000                       # Cumulative time (in ticks) in various power states
system.l2.WritebackDirty_hits::writebacks      1432531                       # number of WritebackDirty hits
system.l2.WritebackDirty_hits::total          1432531                       # number of WritebackDirty hits
system.l2.WritebackClean_hits::writebacks           46                       # number of WritebackClean hits
system.l2.WritebackClean_hits::total               46                       # number of WritebackClean hits
system.l2.ReadExReq_hits::cpu.data               3146                       # number of ReadExReq hits
system.l2.ReadExReq_hits::total                  3146                       # number of ReadExReq hits
system.l2.ReadSharedReq_hits::cpu.data        1412932                       # number of ReadSharedReq hits
system.l2.ReadSharedReq_hits::total           1412932                       # number of ReadSharedReq hits
system.l2.demand_hits::cpu.data               1416078                       # number of demand (read+write) hits
system.l2.demand_hits::total                  1416078                       # number of demand (read+write) hits
system.l2.overall_hits::cpu.data              1416078                       # number of overall hits
system.l2.overall_hits::total                 1416078                       # number of overall hits
system.l2.ReadExReq_misses::cpu.data            16995                       # number of ReadExReq misses
system.l2.ReadExReq_misses::total               16995                       # number of ReadExReq misses
system.l2.ReadCleanReq_misses::cpu.inst           352                       # number of ReadCleanReq misses
system.l2.ReadCleanReq_misses::total              352                       # number of ReadCleanReq misses
system.l2.ReadSharedReq_misses::cpu.data      1693496                       # number of ReadSharedReq misses
system.l2.ReadSharedReq_misses::total         1693496                       # number of ReadSharedReq misses
system.l2.demand_misses::cpu.inst                 352                       # number of demand (read+write) misses
system.l2.demand_misses::cpu.data             1710491                       # number of demand (read+write) misses
system.l2.demand_misses::total                1710843                       # number of demand (read+write) misses
system.l2.overall_misses::cpu.inst                352                       # number of overall misses
system.l2.overall_misses::cpu.data            1710491                       # number of overall misses
system.l2.overall_misses::total               1710843                       # number of overall misses
system.l2.ReadExReq_miss_latency::cpu.data   1834674000                       # number of ReadExReq miss cycles
system.l2.ReadExReq_miss_latency::total    1834674000                       # number of ReadExReq miss cycles
system.l2.ReadCleanReq_miss_latency::cpu.inst     61522500                       # number of ReadCleanReq miss cycles
system.l2.ReadCleanReq_miss_latency::total     61522500                       # number of ReadCleanReq miss cycles
system.l2.ReadSharedReq_miss_latency::cpu.data  53375138000                       # number of ReadSharedReq miss cycles
system.l2.ReadSharedReq_miss_latency::total  53375138000                       # number of ReadSharedReq miss cycles
system.l2.demand_miss_latency::cpu.inst      61522500                       # number of demand (read+write) miss cycles
system.l2.demand_miss_latency::cpu.data   55209812000                       # number of demand (read+write) miss cycles
system.l2.demand_miss_latency::total      55271334500                       # number of demand (read+write) miss cycles
system.l2.overall_miss_latency::cpu.inst     61522500                       # number of overall miss cycles
system.l2.overall_miss_latency::cpu.data  55209812000                       # number of overall miss cycles
system.l2.overall_miss_latency::total     55271334500                       # number of overall miss cycles
system.l2.WritebackDirty_accesses::writebacks      1432531                       # number of WritebackDirty accesses(hits+misses)
system.l2.WritebackDirty_accesses::total      1432531                       # number of WritebackDirty accesses(hits+misses)
system.l2.WritebackClean_accesses::writebacks           46                       # number of WritebackClean accesses(hits+misses)
system.l2.WritebackClean_accesses::total           46                       # number of WritebackClean accesses(hits+misses)
system.l2.ReadExReq_accesses::cpu.data          20141                       # number of ReadExReq accesses(hits+misses)
system.l2.ReadExReq_accesses::total             20141                       # number of ReadExReq accesses(hits+misses)
system.l2.ReadCleanReq_accesses::cpu.inst          352                       # number of ReadCleanReq accesses(hits+misses)
system.l2.ReadCleanReq_accesses::total            352                       # number of ReadCleanReq accesses(hits+misses)
system.l2.ReadSharedReq_accesses::cpu.data      3106428                       # number of ReadSharedReq accesses(hits+misses)
system.l2.ReadSharedReq_accesses::total       3106428                       # number of ReadSharedReq accesses(hits+misses)
system.l2.demand_accesses::cpu.inst               352                       # number of demand (read+write) accesses
system.l2.demand_accesses::cpu.data           3126569                       # number of demand (read+write) accesses
system.l2.demand_accesses::total              3126921                       # number of demand (read+write) accesses
system.l2.overall_accesses::cpu.inst              352                       # number of overall (read+write) accesses
system.l2.overall_accesses::cpu.data          3126569                       # number of overall (read+write) accesses
system.l2.overall_accesses::total             3126921                       # number of overall (read+write) accesses
system.l2.ReadExReq_miss_rate::cpu.data      0.843801                       # miss rate for ReadExReq accesses
system.l2.ReadExReq_miss_rate::total         0.843801                       # miss rate for ReadExReq accesses
system.l2.ReadCleanReq_miss_rate::cpu.inst            1                       # miss rate for ReadCleanReq accesses
system.l2.ReadCleanReq_miss_rate::total             1                       # miss rate for ReadCleanReq accesses
system.l2.ReadSharedReq_miss_rate::cpu.data     0.545159                       # miss rate for ReadSharedReq accesses
system.l2.ReadSharedReq_miss_rate::total     0.545159                       # miss rate for ReadSharedReq accesses
system.l2.demand_miss_rate::cpu.inst                1                       # miss rate for demand accesses
system.l2.demand_miss_rate::cpu.data         0.547082                       # miss rate for demand accesses
system.l2.demand_miss_rate::total            0.547133                       # miss rate for demand accesses
system.l2.overall_miss_rate::cpu.inst               1                       # miss rate for overall accesses
system.l2.overall_miss_rate::cpu.data        0.547082                       # miss rate for overall accesses
system.l2.overall_miss_rate::total           0.547133                       # miss rate for overall accesses
system.l2.ReadExReq_avg_miss_latency::cpu.data 107953.751103                       # average ReadExReq miss latency
system.l2.ReadExReq_avg_miss_latency::total 107953.751103                       # average ReadExReq miss latency
system.l2.ReadCleanReq_avg_miss_latency::cpu.inst 174779.829545                       # average ReadCleanReq miss latency
system.l2.ReadCleanReq_avg_miss_latency::total 174779.829545                       # average ReadCleanReq miss latency
system.l2.ReadSharedReq_avg_miss_latency::cpu.data 31517.723101                       # average ReadSharedReq miss latency
system.l2.ReadSharedReq_avg_miss_latency::total 31517.723101                       # average ReadSharedReq miss latency
system.l2.demand_avg_miss_latency::cpu.inst 174779.829545                       # average overall miss latency
system.l2.demand_avg_miss_latency::cpu.data 32277.171876                       # average overall miss latency
system.l2.demand_avg_miss_latency::total 32306.491303                       # average overall miss latency
system.l2.overall_avg_miss_latency::cpu.inst 174779.829545                       # average overall miss latency
system.l2.overall_avg_miss_latency::cpu.data 32277.171876                       # average overall miss latency
system.l2.overall_avg_miss_latency::total 32306.491303                       # average overall miss latency
system.l2.blocked_cycles::no_mshrs                  0                       # number of cycles access was blocked
system.l2.blocked_cycles::no_targets                0                       # number of cycles access was blocked
system.l2.blocked::no_mshrs                         0                       # number of cycles access was blocked
system.l2.blocked::no_targets                       0                       # number of cycles access was blocked
system.l2.avg_blocked_cycles::no_mshrs            nan                       # average number of cycles each access was blocked
system.l2.avg_blocked_cycles::no_targets          nan                       # average number of cycles each access was blocked
system.l2.writebacks::writebacks              1708425                       # number of writebacks
system.l2.writebacks::total                   1708425                       # number of writebacks
system.l2.ReadExReq_mshr_misses::cpu.data        16995                       # number of ReadExReq MSHR misses
system.l2.ReadExReq_mshr_misses::total          16995                       # number of ReadExReq MSHR misses
system.l2.ReadCleanReq_mshr_misses::cpu.inst          352                       # number of ReadCleanReq MSHR misses
system.l2.ReadCleanReq_mshr_misses::total          352                       # number of ReadCleanReq MSHR misses
system.l2.ReadSharedReq_mshr_misses::cpu.data      1693496                       # number of ReadSharedReq MSHR misses
system.l2.ReadSharedReq_mshr_misses::total      1693496                       # number of ReadSharedReq MSHR misses
system.l2.demand_mshr_misses::cpu.inst            352                       # number of demand (read+write) MSHR misses
system.l2.demand_mshr_misses::cpu.data        1710491                       # number of demand (read+write) MSHR misses
system.l2.demand_mshr_misses::total           1710843                       # number of demand (read+write) MSHR misses
system.l2.overall_mshr_misses::cpu.inst           352                       # number of overall MSHR misses
system.l2.overall_mshr_misses::cpu.data       1710491                       # number of overall MSHR misses
system.l2.overall_mshr_misses::total          1710843                       # number of overall MSHR misses
system.l2.ReadExReq_mshr_miss_latency::cpu.data   1664724000                       # number of ReadExReq MSHR miss cycles
system.l2.ReadExReq_mshr_miss_latency::total   1664724000                       # number of ReadExReq MSHR miss cycles
system.l2.ReadCleanReq_mshr_miss_latency::cpu.inst     58002500                       # number of ReadCleanReq MSHR miss cycles
system.l2.ReadCleanReq_mshr_miss_latency::total     58002500                       # number of ReadCleanReq MSHR miss cycles
system.l2.ReadSharedReq_mshr_miss_latency::cpu.data  36440178000                       # number of ReadSharedReq MSHR miss cycles
system.l2.ReadSharedReq_mshr_miss_latency::total  36440178000                       # number of ReadSharedReq MSHR miss cycles
system.l2.demand_mshr_miss_latency::cpu.inst     58002500                       # number of demand (read+write) MSHR miss cycles
system.l2.demand_mshr_miss_latency::cpu.data  38104902000                       # number of demand (read+write) MSHR miss cycles
system.l2.demand_mshr_miss_latency::total  38162904500                       # number of demand (read+write) MSHR miss cycles
system.l2.overall_mshr_miss_latency::cpu.inst     58002500                       # number of overall MSHR miss cycles
system.l2.overall_mshr_miss_latency::cpu.data  38104902000                       # number of overall MSHR miss cycles
system.l2.overall_mshr_miss_latency::total  38162904500                       # number of overall MSHR miss cycles
system.l2.ReadExReq_mshr_miss_rate::cpu.data     0.843801                       # mshr miss rate for ReadExReq accesses
system.l2.ReadExReq_mshr_miss_rate::total     0.843801                       # mshr miss rate for ReadExReq accesses
system.l2.ReadCleanReq_mshr_miss_rate::cpu.inst            1                       # mshr miss rate for ReadCleanReq accesses
system.l2.ReadCleanReq_mshr_miss_rate::total            1                       # mshr miss rate for ReadCleanReq accesses
system.l2.ReadSharedReq_mshr_miss_rate::cpu.data     0.545159                       # mshr miss rate for ReadSharedReq accesses
system.l2.ReadSharedReq_mshr_miss_rate::total     0.545159                       # mshr miss rate for ReadSharedReq accesses
system.l2.demand_mshr_miss_rate::cpu.inst            1                       # mshr miss rate for demand accesses
system.l2.demand_mshr_miss_rate::cpu.data     0.547082                       # mshr miss rate for demand accesses
system.l2.demand_mshr_miss_rate::total       0.547133                       # mshr miss rate for demand accesses
system.l2.overall_mshr_miss_rate::cpu.inst            1                       # mshr miss rate for overall accesses
system.l2.overall_mshr_miss_rate::cpu.data     0.547082                       # mshr miss rate for overall accesses
system.l2.overall_mshr_miss_rate::total      0.547133                       # mshr miss rate for overall accesses
system.l2.ReadExReq_avg_mshr_miss_latency::cpu.data 97953.751103                       # average ReadExReq mshr miss latency
system.l2.ReadExReq_avg_mshr_miss_latency::total 97953.751103                       # average ReadExReq mshr miss latency
system.l2.ReadCleanReq_avg_mshr_miss_latency::cpu.inst 164779.829545                       # average ReadCleanReq mshr miss latency
system.l2.ReadCleanReq_avg_mshr_miss_latency::total 164779.829545                       # average ReadCleanReq mshr miss latency
system.l2.ReadSharedReq_avg_mshr_miss_latency::cpu.data 21517.723101                       # average ReadSharedReq mshr miss latency
system.l2.ReadSharedReq_avg_mshr_miss_latency::total 21517.723101                       # average ReadSharedReq mshr miss latency
system.l2.demand_avg_mshr_miss_latency::cpu.inst 164779.829545                       # average overall mshr miss latency
system.l2.demand_avg_mshr_miss_latency::cpu.data 22277.171876                       # average overall mshr miss latency
system.l2.demand_avg_mshr_miss_latency::total 22306.491303                       # average overall mshr miss latency
system.l2.overall_avg_mshr_miss_latency::cpu.inst 164779.829545                       # average overall mshr miss latency
system.l2.overall_avg_mshr_miss_latency::cpu.data 22277.171876                       # average overall mshr miss latency
system.l2.overall_avg_mshr_miss_latency::total 22306.491303                       # average overall mshr miss latency
system.l2.replacements                        1708817                       # number of replacements
system.l3.tags.pwrStateResidencyTicks::UNDEFINED 1963312734000                       # Cumulative time (in ticks) in various power states
system.l3.tags.tagsinuse                 14029.229697                       # Cycle average of tags in use
system.l3.tags.total_refs                     3419369                       # Total number of references to valid blocks.
system.l3.tags.sampled_refs                     17466                       # Sample count of references to valid blocks.
system.l3.tags.avg_refs                    195.772873                       # Average number of references to valid blocks.
system.l3.tags.warmup_cycle                    418000                       # Cycle when the warmup percentage was hit.
system.l3.tags.occ_blocks::writebacks        3.011279                       # Average occupied blocks per requestor
system.l3.tags.occ_blocks::cpu.inst         75.016347                       # Average occupied blocks per requestor
system.l3.tags.occ_blocks::cpu.data      13951.202072                       # Average occupied blocks per requestor
system.l3.tags.occ_percent::writebacks       0.000184                       # Average percentage of cache occupancy
system.l3.tags.occ_percent::cpu.inst         0.004579                       # Average percentage of cache occupancy
system.l3.tags.occ_percent::cpu.data         0.851514                       # Average percentage of cache occupancy
system.l3.tags.occ_percent::total            0.856276                       # Average percentage of cache occupancy
system.l3.tags.occ_task_id_blocks::1024         16384                       # Occupied blocks per task id
system.l3.tags.age_task_id_blocks_1024::0           25                       # Occupied blocks per task id
system.l3.tags.age_task_id_blocks_1024::1           38                       # Occupied blocks per task id
system.l3.tags.age_task_id_blocks_1024::2            3                       # Occupied blocks per task id
system.l3.tags.age_task_id_blocks_1024::3           26                       # Occupied blocks per task id
system.l3.tags.age_task_id_blocks_1024::4        16292                       # Occupied blocks per task id
system.l3.tags.occ_task_id_percent::1024            1                       # Percentage of cache occupancy per task id
system.l3.tags.tag_accesses                   3436835                       # Number of tag accesses
system.l3.tags.data_accesses                  3436835                       # Number of data accesses
system.l3.pwrStateResidencyTicks::UNDEFINED 1963312734000                       # Cumulative time (in ticks) in various power states
system.l3.WritebackDirty_hits::writebacks      1708424                       # number of WritebackDirty hits
system.l3.WritebackDirty_hits::total          1708424                       # number of WritebackDirty hits
system.l3.ReadExReq_hits::cpu.data                  1                       # number of ReadExReq hits
system.l3.ReadExReq_hits::total                     1                       # number of ReadExReq hits
system.l3.ReadSharedReq_hits::cpu.data        1693383                       # number of ReadSharedReq hits
system.l3.ReadSharedReq_hits::total           1693383                       # number of ReadSharedReq hits
system.l3.demand_hits::cpu.data               1693384                       # number of demand (read+write) hits
system.l3.demand_hits::total                  1693384                       # number of demand (read+write) hits
system.l3.overall_hits::cpu.data              1693384                       # number of overall hits
system.l3.overall_hits::total                 1693384                       # number of overall hits
system.l3.ReadExReq_misses::cpu.data            16994                       # number of ReadExReq misses
system.l3.ReadExReq_misses::total               16994                       # number of ReadExReq misses
system.l3.ReadSharedReq_misses::cpu.inst          352                       # number of ReadSharedReq misses
system.l3.ReadSharedReq_misses::cpu.data          113                       # number of ReadSharedReq misses
system.l3.ReadSharedReq_misses::total             465                       # number of ReadSharedReq misses
system.l3.demand_misses::cpu.inst                 352                       # number of demand (read+write) misses
system.l3.demand_misses::cpu.data               17107                       # number of demand (read+write) misses
system.l3.demand_misses::total                  17459                       # number of demand (read+write) misses
system.l3.overall_misses::cpu.inst                352                       # number of overall misses
system.l3.overall_misses::cpu.data              17107                       # number of overall misses
system.l3.overall_misses::total                 17459                       # number of overall misses
system.l3.ReadExReq_miss_latency::cpu.data   1477768500                       # number of ReadExReq miss cycles
system.l3.ReadExReq_miss_latency::total    1477768500                       # number of ReadExReq miss cycles
system.l3.ReadSharedReq_miss_latency::cpu.inst     54130500                       # number of ReadSharedReq miss cycles
system.l3.ReadSharedReq_miss_latency::cpu.data     31200500                       # number of ReadSharedReq miss cycles
system.l3.ReadSharedReq_miss_latency::total     85331000                       # number of ReadSharedReq miss cycles
system.l3.demand_miss_latency::cpu.inst      54130500                       # number of demand (read+write) miss cycles
system.l3.demand_miss_latency::cpu.data    1508969000                       # number of demand (read+write) miss cycles
system.l3.demand_miss_latency::total       1563099500                       # number of demand (read+write) miss cycles
system.l3.overall_miss_latency::cpu.inst     54130500                       # number of overall miss cycles
system.l3.overall_miss_latency::cpu.data   1508969000                       # number of overall miss cycles
system.l3.overall_miss_latency::total      1563099500                       # number of overall miss cycles
system.l3.WritebackDirty_accesses::writebacks      1708424                       # number of WritebackDirty accesses(hits+misses)
system.l3.WritebackDirty_accesses::total      1708424                       # number of WritebackDirty accesses(hits+misses)
system.l3.ReadExReq_accesses::cpu.data          16995                       # number of ReadExReq accesses(hits+misses)
system.l3.ReadExReq_accesses::total             16995                       # number of ReadExReq accesses(hits+misses)
system.l3.ReadSharedReq_accesses::cpu.inst          352                       # number of ReadSharedReq accesses(hits+misses)
system.l3.ReadSharedReq_accesses::cpu.data      1693496                       # number of ReadSharedReq accesses(hits+misses)
system.l3.ReadSharedReq_accesses::total       1693848                       # number of ReadSharedReq accesses(hits+misses)
system.l3.demand_accesses::cpu.inst               352                       # number of demand (read+write) accesses
system.l3.demand_accesses::cpu.data           1710491                       # number of demand (read+write) accesses
system.l3.demand_accesses::total              1710843                       # number of demand (read+write) accesses
system.l3.overall_accesses::cpu.inst              352                       # number of overall (read+write) accesses
system.l3.overall_accesses::cpu.data          1710491                       # number of overall (read+write) accesses
system.l3.overall_accesses::total             1710843                       # number of overall (read+write) accesses
system.l3.ReadExReq_miss_rate::cpu.data      0.999941                       # miss rate for ReadExReq accesses
system.l3.ReadExReq_miss_rate::total         0.999941                       # miss rate for ReadExReq accesses
system.l3.ReadSharedReq_miss_rate::cpu.inst            1                       # miss rate for ReadSharedReq accesses
system.l3.ReadSharedReq_miss_rate::cpu.data     0.000067                       # miss rate for ReadSharedReq accesses
system.l3.ReadSharedReq_miss_rate::total     0.000275                       # miss rate for ReadSharedReq accesses
system.l3.demand_miss_rate::cpu.inst                1                       # miss rate for demand accesses
system.l3.demand_miss_rate::cpu.data         0.010001                       # miss rate for demand accesses
system.l3.demand_miss_rate::total            0.010205                       # miss rate for demand accesses
system.l3.overall_miss_rate::cpu.inst               1                       # miss rate for overall accesses
system.l3.overall_miss_rate::cpu.data        0.010001                       # miss rate for overall accesses
system.l3.overall_miss_rate::total           0.010205                       # miss rate for overall accesses
system.l3.ReadExReq_avg_miss_latency::cpu.data 86958.249971                       # average ReadExReq miss latency
system.l3.ReadExReq_avg_miss_latency::total 86958.249971                       # average ReadExReq miss latency
system.l3.ReadSharedReq_avg_miss_latency::cpu.inst 153779.829545                       # average ReadSharedReq miss latency
system.l3.ReadSharedReq_avg_miss_latency::cpu.data 276110.619469                       # average ReadSharedReq miss latency
system.l3.ReadSharedReq_avg_miss_latency::total 183507.526882                       # average ReadSharedReq miss latency
system.l3.demand_avg_miss_latency::cpu.inst 153779.829545                       # average overall miss latency
system.l3.demand_avg_miss_latency::cpu.data 88207.692757                       # average overall miss latency
system.l3.demand_avg_miss_latency::total 89529.726788                       # average overall miss latency
system.l3.overall_avg_miss_latency::cpu.inst 153779.829545                       # average overall miss latency
system.l3.overall_avg_miss_latency::cpu.data 88207.692757                       # average overall miss latency
system.l3.overall_avg_miss_latency::total 89529.726788                       # average overall miss latency
system.l3.blocked_cycles::no_mshrs                  0                       # number of cycles access was blocked
system.l3.blocked_cycles::no_targets                0                       # number of cycles access was blocked
system.l3.blocked::no_mshrs                         0                       # number of cycles access was blocked
system.l3.blocked::no_targets                       0                       # number of cycles access was blocked
system.l3.avg_blocked_cycles::no_mshrs            nan                       # average number of cycles each access was blocked
system.l3.avg_blocked_cycles::no_targets          nan                       # average number of cycles each access was blocked
system.l3.writebacks::writebacks                  693                       # number of writebacks
system.l3.writebacks::total                       693                       # number of writebacks
system.l3.ReadExReq_mshr_misses::cpu.data        16994                       # number of ReadExReq MSHR misses
system.l3.ReadExReq_mshr_misses::total          16994                       # number of ReadExReq MSHR misses
system.l3.ReadSharedReq_mshr_misses::cpu.inst          352                       # number of ReadSharedReq MSHR misses
system.l3.ReadSharedReq_mshr_misses::cpu.data          113                       # number of ReadSharedReq MSHR misses
system.l3.ReadSharedReq_mshr_misses::total          465                       # number of ReadSharedReq MSHR misses
system.l3.demand_mshr_misses::cpu.inst            352                       # number of demand (read+write) MSHR misses
system.l3.demand_mshr_misses::cpu.data          17107                       # number of demand (read+write) MSHR misses
system.l3.demand_mshr_misses::total             17459                       # number of demand (read+write) MSHR misses
system.l3.overall_mshr_misses::cpu.inst           352                       # number of overall MSHR misses
system.l3.overall_mshr_misses::cpu.data         17107                       # number of overall MSHR misses
system.l3.overall_mshr_misses::total            17459                       # number of overall MSHR misses
system.l3.ReadExReq_mshr_miss_latency::cpu.data   1307828500                       # number of ReadExReq MSHR miss cycles
system.l3.ReadExReq_mshr_miss_latency::total   1307828500                       # number of ReadExReq MSHR miss cycles
system.l3.ReadSharedReq_mshr_miss_latency::cpu.inst     50610500                       # number of ReadSharedReq MSHR miss cycles
system.l3.ReadSharedReq_mshr_miss_latency::cpu.data     30070500                       # number of ReadSharedReq MSHR miss cycles
system.l3.ReadSharedReq_mshr_miss_latency::total     80681000                       # number of ReadSharedReq MSHR miss cycles
system.l3.demand_mshr_miss_latency::cpu.inst     50610500                       # number of demand (read+write) MSHR miss cycles
system.l3.demand_mshr_miss_latency::cpu.data   1337899000                       # number of demand (read+write) MSHR miss cycles
system.l3.demand_mshr_miss_latency::total   1388509500                       # number of demand (read+write) MSHR miss cycles
system.l3.overall_mshr_miss_latency::cpu.inst     50610500                       # number of overall MSHR miss cycles
system.l3.overall_mshr_miss_latency::cpu.data   1337899000                       # number of overall MSHR miss cycles
system.l3.overall_mshr_miss_latency::total   1388509500                       # number of overall MSHR miss cycles
system.l3.ReadExReq_mshr_miss_rate::cpu.data     0.999941                       # mshr miss rate for ReadExReq accesses
system.l3.ReadExReq_mshr_miss_rate::total     0.999941                       # mshr miss rate for ReadExReq accesses
system.l3.ReadSharedReq_mshr_miss_rate::cpu.inst            1                       # mshr miss rate for ReadSharedReq accesses
system.l3.ReadSharedReq_mshr_miss_rate::cpu.data     0.000067                       # mshr miss rate for ReadSharedReq accesses
system.l3.ReadSharedReq_mshr_miss_rate::total     0.000275                       # mshr miss rate for ReadSharedReq accesses
system.l3.demand_mshr_miss_rate::cpu.inst            1                       # mshr miss rate for demand accesses
system.l3.demand_mshr_miss_rate::cpu.data     0.010001                       # mshr miss rate for demand accesses
system.l3.demand_mshr_miss_rate::total       0.010205                       # mshr miss rate for demand accesses
system.l3.overall_mshr_miss_rate::cpu.inst            1                       # mshr miss rate for overall accesses
system.l3.overall_mshr_miss_rate::cpu.data     0.010001                       # mshr miss rate for overall accesses
system.l3.overall_mshr_miss_rate::total      0.010205                       # mshr miss rate for overall accesses
system.l3.ReadExReq_avg_mshr_miss_latency::cpu.data 76958.249971                       # average ReadExReq mshr miss latency
system.l3.ReadExReq_avg_mshr_miss_latency::total 76958.249971                       # average ReadExReq mshr miss latency
system.l3.ReadSharedReq_avg_mshr_miss_latency::cpu.inst 143779.829545                       # average ReadSharedReq mshr miss latency
system.l3.ReadSharedReq_avg_mshr_miss_latency::cpu.data 266110.619469                       # average ReadSharedReq mshr miss latency
system.l3.ReadSharedReq_avg_mshr_miss_latency::total 173507.526882                       # average ReadSharedReq mshr miss latency
system.l3.demand_avg_mshr_miss_latency::cpu.inst 143779.829545                       # average overall mshr miss latency
system.l3.demand_avg_mshr_miss_latency::cpu.data 78207.692757                       # average overall mshr miss latency
system.l3.demand_avg_mshr_miss_latency::total 79529.726788                       # average overall mshr miss latency
system.l3.overall_avg_mshr_miss_latency::cpu.inst 143779.829545                       # average overall mshr miss latency
system.l3.overall_avg_mshr_miss_latency::cpu.data 78207.692757                       # average overall mshr miss latency
system.l3.overall_avg_mshr_miss_latency::total 79529.726788                       # average overall mshr miss latency
system.l3.replacements                           1082                       # number of replacements
system.membus.snoop_filter.tot_requests         18250                       # Total number of requests made to the snoop filter.
system.membus.snoop_filter.hit_single_requests          791                       # Number of requests hitting in the snoop filter with a single holder of the requested data.
system.membus.snoop_filter.hit_multi_requests            0                       # Number of requests hitting in the snoop filter with multiple (>1) holders of the requested data.
system.membus.snoop_filter.tot_snoops               0                       # Total number of snoops made to the snoop filter.
system.membus.snoop_filter.hit_single_snoops            0                       # Number of snoops hitting in the snoop filter with a single holder of the requested data.
system.membus.snoop_filter.hit_multi_snoops            0                       # Number of snoops hitting in the snoop filter with multiple (>1) holders of the requested data.
system.membus.pwrStateResidencyTicks::UNDEFINED 1963312734000                       # Cumulative time (in ticks) in various power states
system.membus.trans_dist::ReadResp                465                       # Transaction distribution
system.membus.trans_dist::WritebackDirty          693                       # Transaction distribution
system.membus.trans_dist::CleanEvict               98                       # Transaction distribution
system.membus.trans_dist::ReadExReq             16994                       # Transaction distribution
system.membus.trans_dist::ReadExResp            16994                       # Transaction distribution
system.membus.trans_dist::ReadSharedReq           465                       # Transaction distribution
system.membus.pkt_count_system.l3.mem_side::system.mem_ctrls.port        35709                       # Packet count per connected master and slave (bytes)
system.membus.pkt_count_system.l3.mem_side::total        35709                       # Packet count per connected master and slave (bytes)
system.membus.pkt_count::total                  35709                       # Packet count per connected master and slave (bytes)
system.membus.pkt_size_system.l3.mem_side::system.mem_ctrls.port      1161728                       # Cumulative packet size per connected master and slave (bytes)
system.membus.pkt_size_system.l3.mem_side::total      1161728                       # Cumulative packet size per connected master and slave (bytes)
system.membus.pkt_size::total                 1161728                       # Cumulative packet size per connected master and slave (bytes)
system.membus.snoops                                0                       # Total snoops (count)
system.membus.snoopTraffic                          0                       # Total snoop traffic (bytes)
system.membus.snoop_fanout::samples             17459                       # Request fanout histogram
system.membus.snoop_fanout::mean                    0                       # Request fanout histogram
system.membus.snoop_fanout::stdev                   0                       # Request fanout histogram
system.membus.snoop_fanout::underflows              0      0.00%      0.00% # Request fanout histogram
system.membus.snoop_fanout::0                   17459    100.00%    100.00% # Request fanout histogram
system.membus.snoop_fanout::1                       0      0.00%    100.00% # Request fanout histogram
system.membus.snoop_fanout::overflows               0      0.00%    100.00% # Request fanout histogram
system.membus.snoop_fanout::min_value               0                       # Request fanout histogram
system.membus.snoop_fanout::max_value               0                       # Request fanout histogram
system.membus.snoop_fanout::total               17459                       # Request fanout histogram
system.membus.reqLayer2.occupancy            21026000                       # Layer occupancy (ticks)
system.membus.reqLayer2.utilization               0.0                       # Layer utilization (%)
system.membus.respLayer1.occupancy           87299000                       # Layer occupancy (ticks)
system.membus.respLayer1.utilization              0.0                       # Layer utilization (%)
system.tol2bus.snoop_filter.tot_requests      6253024                       # Total number of requests made to the snoop filter.
system.tol2bus.snoop_filter.hit_single_requests      3126103                       # Number of requests hitting in the snoop filter with a single holder of the requested data.
system.tol2bus.snoop_filter.hit_multi_requests            0                       # Number of requests hitting in the snoop filter with multiple (>1) holders of the requested data.
system.tol2bus.snoop_filter.tot_snoops            578                       # Total number of snoops made to the snoop filter.
system.tol2bus.snoop_filter.hit_single_snoops          578                       # Number of snoops hitting in the snoop filter with a single holder of the requested data.
system.tol2bus.snoop_filter.hit_multi_snoops            0                       # Number of snoops hitting in the snoop filter with multiple (>1) holders of the requested data.
system.tol2bus.pwrStateResidencyTicks::UNDEFINED 1963312734000                       # Cumulative time (in ticks) in various power states
system.tol2bus.trans_dist::ReadResp           3106780                       # Transaction distribution
system.tol2bus.trans_dist::WritebackDirty      3140956                       # Transaction distribution
system.tol2bus.trans_dist::WritebackClean           46                       # Transaction distribution
system.tol2bus.trans_dist::CleanEvict         1694209                       # Transaction distribution
system.tol2bus.trans_dist::ReadExReq            20141                       # Transaction distribution
system.tol2bus.trans_dist::ReadExResp           20141                       # Transaction distribution
system.tol2bus.trans_dist::ReadCleanReq           352                       # Transaction distribution
system.tol2bus.trans_dist::ReadSharedReq      3106428                       # Transaction distribution
system.tol2bus.pkt_count_system.cpu.icache.mem_side::system.l2.cpu_side          750                       # Packet count per connected master and slave (bytes)
system.tol2bus.pkt_count_system.cpu.dcache.mem_side::system.l2.cpu_side      9379195                       # Packet count per connected master and slave (bytes)
system.tol2bus.pkt_count::total               9379945                       # Packet count per connected master and slave (bytes)
system.tol2bus.pkt_size_system.cpu.icache.mem_side::system.l2.cpu_side        25472                       # Cumulative packet size per connected master and slave (bytes)
system.tol2bus.pkt_size_system.cpu.dcache.mem_side::system.l2.cpu_side    291782400                       # Cumulative packet size per connected master and slave (bytes)
system.tol2bus.pkt_size::total              291807872                       # Cumulative packet size per connected master and slave (bytes)
system.tol2bus.snoops                         1709108                       # Total snoops (count)
system.tol2bus.snoopTraffic                 109339200                       # Total snoop traffic (bytes)
system.tol2bus.snoop_fanout::samples          4836029                       # Request fanout histogram
system.tol2bus.snoop_fanout::mean            0.000120                       # Request fanout histogram
system.tol2bus.snoop_fanout::stdev           0.010932                       # Request fanout histogram
system.tol2bus.snoop_fanout::underflows             0      0.00%      0.00% # Request fanout histogram
system.tol2bus.snoop_fanout::0                4835451     99.99%     99.99% # Request fanout histogram
system.tol2bus.snoop_fanout::1                    578      0.01%    100.00% # Request fanout histogram
system.tol2bus.snoop_fanout::2                      0      0.00%    100.00% # Request fanout histogram
system.tol2bus.snoop_fanout::3                      0      0.00%    100.00% # Request fanout histogram
system.tol2bus.snoop_fanout::4                      0      0.00%    100.00% # Request fanout histogram
system.tol2bus.snoop_fanout::overflows              0      0.00%    100.00% # Request fanout histogram
system.tol2bus.snoop_fanout::min_value              0                       # Request fanout histogram
system.tol2bus.snoop_fanout::max_value              1                       # Request fanout histogram
system.tol2bus.snoop_fanout::total            4836029                       # Request fanout histogram
system.tol2bus.reqLayer0.occupancy         4559089000                       # Layer occupancy (ticks)
system.tol2bus.reqLayer0.utilization              0.2                       # Layer utilization (%)
system.tol2bus.respLayer0.occupancy            528000                       # Layer occupancy (ticks)
system.tol2bus.respLayer0.utilization             0.0                       # Layer utilization (%)
system.tol2bus.respLayer1.occupancy        4689853500                       # Layer occupancy (ticks)
system.tol2bus.respLayer1.utilization             0.2                       # Layer utilization (%)
system.tol3bus.snoop_filter.tot_requests      3419369                       # Total number of requests made to the snoop filter.
system.tol3bus.snoop_filter.hit_single_requests      1708526                       # Number of requests hitting in the snoop filter with a single holder of the requested data.
system.tol3bus.snoop_filter.hit_multi_requests            0                       # Number of requests hitting in the snoop filter with multiple (>1) holders of the requested data.
system.tol3bus.snoop_filter.tot_snoops            291                       # Total number of snoops made to the snoop filter.
system.tol3bus.snoop_filter.hit_single_snoops          291                       # Number of snoops hitting in the snoop filter with a single holder of the requested data.
system.tol3bus.snoop_filter.hit_multi_snoops            0                       # Number of snoops hitting in the snoop filter with multiple (>1) holders of the requested data.
system.tol3bus.pwrStateResidencyTicks::UNDEFINED 1963312734000                       # Cumulative time (in ticks) in various power states
system.tol3bus.trans_dist::ReadResp           1693848                       # Transaction distribution
system.tol3bus.trans_dist::WritebackDirty      1709117                       # Transaction distribution
system.tol3bus.trans_dist::CleanEvict             491                       # Transaction distribution
system.tol3bus.trans_dist::ReadExReq            16995                       # Transaction distribution
system.tol3bus.trans_dist::ReadExResp           16995                       # Transaction distribution
system.tol3bus.trans_dist::ReadSharedReq      1693848                       # Transaction distribution
system.tol3bus.pkt_count_system.l2.mem_side::system.l3.cpu_side      5130212                       # Packet count per connected master and slave (bytes)
system.tol3bus.pkt_size_system.l2.mem_side::system.l3.cpu_side    218833088                       # Cumulative packet size per connected master and slave (bytes)
system.tol3bus.snoops                            1082                       # Total snoops (count)
system.tol3bus.snoopTraffic                     44352                       # Total snoop traffic (bytes)
system.tol3bus.snoop_fanout::samples          1711925                       # Request fanout histogram
system.tol3bus.snoop_fanout::mean            0.000170                       # Request fanout histogram
system.tol3bus.snoop_fanout::stdev           0.013037                       # Request fanout histogram
system.tol3bus.snoop_fanout::underflows             0      0.00%      0.00% # Request fanout histogram
system.tol3bus.snoop_fanout::0                1711634     99.98%     99.98% # Request fanout histogram
system.tol3bus.snoop_fanout::1                    291      0.02%    100.00% # Request fanout histogram
system.tol3bus.snoop_fanout::overflows              0      0.00%    100.00% # Request fanout histogram
system.tol3bus.snoop_fanout::min_value              0                       # Request fanout histogram
system.tol3bus.snoop_fanout::max_value              1                       # Request fanout histogram
system.tol3bus.snoop_fanout::total            1711925                       # Request fanout histogram
system.tol3bus.reqLayer0.occupancy         3418108500                       # Layer occupancy (ticks)
system.tol3bus.reqLayer0.utilization              0.2                       # Layer utilization (%)
system.tol3bus.respLayer0.occupancy        2566264500                       # Layer occupancy (ticks)
system.tol3bus.respLayer0.utilization             0.1                       # Layer utilization (%)

---------- End Simulation Statistics   ----------
